@<TRIPOS>MOLECULE
probe-1_0_0
2160   2160    1
SMALL
USER_CHARGES


@<TRIPOS>ATOM
      1 O(1)        9.1737    0.6998    8.9648 O.3       1 UNK         0.0000 
      2 O(2)        4.1998    4.6443    7.6380 O.2       1 UNK         0.0000 
      3 N(1)        4.8508    4.1200    9.7497 N.am      1 UNK         0.0000 
      4 C(1)        5.9581    3.2801    9.4956 C.ar      1 UNK         0.0000 
      5 C(2)        6.6810    3.2782    8.3028 C.ar      1 UNK         0.0000 
      6 C(3)        7.7586    2.4115    8.1462 C.ar      1 UNK         0.0000 
      7 C(4)        8.1290    1.5493    9.1751 C.ar      1 UNK         0.0000 
      8 C(5)        7.4256    1.5730   10.3788 C.ar      1 UNK         0.0000 
      9 C(6)        6.3478    2.4330   10.5337 C.ar      1 UNK         0.0000 
     10 C(7)        4.0435    4.7222    8.8614 C.2       1 UNK         0.0000 
     11 C(8)        2.9200    5.5237    9.4624 C.3       1 UNK         0.0000 
     12 H(1)        6.4025    3.9410    7.4929 H         1 UNK         0.0000 
     13 H(2)        8.3054    2.4222    7.2113 H         1 UNK         0.0000 
     14 H(3)        7.7186    0.9172   11.1894 H         1 UNK         0.0000 
     15 H(4)        5.8009    2.4494   11.4683 H         1 UNK         0.0000 
     16 H(5)        9.4980    0.3452    9.8016 H         1 UNK         0.0000 
     17 H(6)        4.5923    4.2150   10.7204 H         1 UNK         0.0000 
     18 H(7)        3.1385    6.5542    9.3531 H         1 UNK         0.0000 
     19 H(8)        2.7683    5.3165   10.4898 H         1 UNK         0.0000 
     20 H(9)        2.0395    5.3593    8.8976 H         1 UNK         0.0000 
     21 O(1)       -0.9549   -3.8867   14.7654 O.3       1 UNK         0.0000 
     22 O(2)        4.0190    0.0578   16.0922 O.2       1 UNK         0.0000 
     23 N(1)        3.3679   -0.4665   13.9805 N.am      1 UNK         0.0000 
     24 C(1)        2.2606   -1.3064   14.2346 C.ar      1 UNK         0.0000 
     25 C(2)        1.5378   -1.3083   15.4274 C.ar      1 UNK         0.0000 
     26 C(3)        0.4601   -2.1750   15.5840 C.ar      1 UNK         0.0000 
     27 C(4)        0.0898   -3.0372   14.5551 C.ar      1 UNK         0.0000 
     28 C(5)        0.7931   -3.0135   13.3514 C.ar      1 UNK         0.0000 
     29 C(6)        1.8709   -2.1535   13.1965 C.ar      1 UNK         0.0000 
     30 C(7)        4.1753    0.1357   14.8687 C.2       1 UNK         0.0000 
     31 C(8)        5.2987    0.9372   14.2678 C.3       1 UNK         0.0000 
     32 H(1)        1.8162   -0.6455   16.2373 H         1 UNK         0.0000 
     33 H(2)       -0.0867   -2.1643   16.5188 H         1 UNK         0.0000 
     34 H(3)        0.5002   -3.6693   12.5408 H         1 UNK         0.0000 
     35 H(4)        2.4179   -2.1371   12.2618 H         1 UNK         0.0000 
     36 H(5)       -1.2793   -4.2413   13.9286 H         1 UNK         0.0000 
     37 H(6)        3.6264   -0.3715   13.0098 H         1 UNK         0.0000 
     38 H(7)        5.0803    1.9677   14.3771 H         1 UNK         0.0000 
     39 H(8)        5.4505    0.7300   13.2404 H         1 UNK         0.0000 
     40 H(9)        6.1792    0.7728   14.8326 H         1 UNK         0.0000 
     41 O(1)        3.3730    8.4732    4.2507 O.3       1 UNK         0.0000 
     42 O(2)        8.3469    4.5287    5.5774 O.2       1 UNK         0.0000 
     43 N(1)        7.6959    5.0530    3.4657 N.am      1 UNK         0.0000 
     44 C(1)        6.5885    5.8929    3.7198 C.ar      1 UNK         0.0000 
     45 C(2)        5.8657    5.8948    4.9126 C.ar      1 UNK         0.0000 
     46 C(3)        4.7881    6.7615    5.0693 C.ar      1 UNK         0.0000 
     47 C(4)        4.4177    7.6237    4.0404 C.ar      1 UNK         0.0000 
     48 C(5)        5.1211    7.6000    2.8367 C.ar      1 UNK         0.0000 
     49 C(6)        6.1989    6.7400    2.6817 C.ar      1 UNK         0.0000 
     50 C(7)        8.5032    4.4508    4.3540 C.2       1 UNK         0.0000 
     51 C(8)        9.6267    3.6493    3.7530 C.3       1 UNK         0.0000 
     52 H(1)        6.1442    5.2320    5.7226 H         1 UNK         0.0000 
     53 H(2)        4.2413    6.7508    6.0041 H         1 UNK         0.0000 
     54 H(3)        4.8281    8.2558    2.0261 H         1 UNK         0.0000 
     55 H(4)        6.7458    6.7236    1.7471 H         1 UNK         0.0000 
     56 H(5)        3.0487    8.8278    3.4139 H         1 UNK         0.0000 
     57 H(6)        7.9544    4.9580    2.4950 H         1 UNK         0.0000 
     58 H(7)        9.4082    2.6188    3.8623 H         1 UNK         0.0000 
     59 H(8)        9.7784    3.8565    2.7256 H         1 UNK         0.0000 
     60 H(9)       10.5072    3.8137    4.3178 H         1 UNK         0.0000 
     61 O(1)        2.9003    3.8867    5.4598 O.3       1 UNK         0.0000 
     62 O(2)       -2.0736   -0.0578    4.1331 O.2       1 UNK         0.0000 
     63 N(1)       -1.4225    0.4665    6.2448 N.am      1 UNK         0.0000 
     64 C(1)       -0.3152    1.3064    5.9907 C.ar      1 UNK         0.0000 
     65 C(2)        0.4076    1.3083    4.7979 C.ar      1 UNK         0.0000 
     66 C(3)        1.4853    2.1750    4.6412 C.ar      1 UNK         0.0000 
     67 C(4)        1.8556    3.0372    5.6701 C.ar      1 UNK         0.0000 
     68 C(5)        1.1523    3.0135    6.8738 C.ar      1 UNK         0.0000 
     69 C(6)        0.0744    2.1535    7.0288 C.ar      1 UNK         0.0000 
     70 C(7)       -2.2299   -0.1357    5.3565 C.2       1 UNK         0.0000 
     71 C(8)       -3.3533   -0.9372    5.9575 C.3       1 UNK         0.0000 
     72 H(1)        0.1292    0.6455    3.9879 H         1 UNK         0.0000 
     73 H(2)        2.0321    2.1643    3.7064 H         1 UNK         0.0000 
     74 H(3)        1.4452    3.6693    7.6844 H         1 UNK         0.0000 
     75 H(4)       -0.4725    2.1371    7.9634 H         1 UNK         0.0000 
     76 H(5)        3.2247    4.2413    6.2966 H         1 UNK         0.0000 
     77 H(6)       -1.6810    0.3715    7.2155 H         1 UNK         0.0000 
     78 H(7)       -3.1349   -1.9677    5.8482 H         1 UNK         0.0000 
     79 H(8)       -3.5051   -0.7300    6.9849 H         1 UNK         0.0000 
     80 H(9)       -4.2339   -0.7728    5.3927 H         1 UNK         0.0000 
     81 O(1)       10.1464    0.6998   15.9746 O.3       1 UNK         0.0000 
     82 O(2)        5.1725    4.6443   14.6478 O.2       1 UNK         0.0000 
     83 N(1)        5.8235    4.1200   16.7595 N.am      1 UNK         0.0000 
     84 C(1)        6.9308    3.2801   16.5055 C.ar      1 UNK         0.0000 
     85 C(2)        7.6537    3.2782   15.3126 C.ar      1 UNK         0.0000 
     86 C(3)        8.7313    2.4115   15.1560 C.ar      1 UNK         0.0000 
     87 C(4)        9.1016    1.5493   16.1849 C.ar      1 UNK         0.0000 
     88 C(5)        8.3983    1.5730   17.3886 C.ar      1 UNK         0.0000 
     89 C(6)        7.3205    2.4330   17.5435 C.ar      1 UNK         0.0000 
     90 C(7)        5.0162    4.7222   15.8713 C.2       1 UNK         0.0000 
     91 C(8)        3.8927    5.5237   16.4723 C.3       1 UNK         0.0000 
     92 H(1)        7.3752    3.9410   14.5027 H         1 UNK         0.0000 
     93 H(2)        9.2781    2.4222   14.2212 H         1 UNK         0.0000 
     94 H(3)        8.6912    0.9172   18.1992 H         1 UNK         0.0000 
     95 H(4)        6.7736    2.4494   18.4782 H         1 UNK         0.0000 
     96 H(5)       10.4707    0.3452   16.8114 H         1 UNK         0.0000 
     97 H(6)        5.5650    4.2150   17.7302 H         1 UNK         0.0000 
     98 H(7)        4.1112    6.5542   16.3629 H         1 UNK         0.0000 
     99 H(8)        3.7409    5.3165   17.4996 H         1 UNK         0.0000 
    100 H(9)        3.0122    5.3593   15.9074 H         1 UNK         0.0000 
    101 O(1)       11.5918   -3.8867   21.7753 O.3       1 UNK         0.0000 
    102 O(2)       16.5657    0.0578   23.1020 O.2       1 UNK         0.0000 
    103 N(1)       15.9146   -0.4665   20.9903 N.am      1 UNK         0.0000 
    104 C(1)       14.8073   -1.3064   21.2444 C.ar      1 UNK         0.0000 
    105 C(2)       14.0845   -1.3083   22.4372 C.ar      1 UNK         0.0000 
    106 C(3)       13.0068   -2.1750   22.5939 C.ar      1 UNK         0.0000 
    107 C(4)       12.6365   -3.0372   21.5650 C.ar      1 UNK         0.0000 
    108 C(5)       13.3398   -3.0135   20.3613 C.ar      1 UNK         0.0000 
    109 C(6)       14.4176   -2.1535   20.2063 C.ar      1 UNK         0.0000 
    110 C(7)       16.7220    0.1357   21.8786 C.2       1 UNK         0.0000 
    111 C(8)       17.8454    0.9372   21.2776 C.3       1 UNK         0.0000 
    112 H(1)       14.3629   -0.6455   23.2472 H         1 UNK         0.0000 
    113 H(2)       12.4600   -2.1643   23.5287 H         1 UNK         0.0000 
    114 H(3)       13.0469   -3.6693   19.5507 H         1 UNK         0.0000 
    115 H(4)       14.9646   -2.1371   19.2717 H         1 UNK         0.0000 
    116 H(5)       11.2674   -4.2413   20.9385 H         1 UNK         0.0000 
    117 H(6)       16.1731   -0.3715   20.0196 H         1 UNK         0.0000 
    118 H(7)       17.6270    1.9677   21.3869 H         1 UNK         0.0000 
    119 H(8)       17.9972    0.7300   20.2502 H         1 UNK         0.0000 
    120 H(9)       18.7259    0.7728   21.8424 H         1 UNK         0.0000 
    121 O(1)        4.3457    8.4732   11.2605 O.3       1 UNK         0.0000 
    122 O(2)        9.3196    4.5287   12.5873 O.2       1 UNK         0.0000 
    123 N(1)        8.6686    5.0530   10.4756 N.am      1 UNK         0.0000 
    124 C(1)        7.5612    5.8929   10.7296 C.ar      1 UNK         0.0000 
    125 C(2)        6.8384    5.8948   11.9225 C.ar      1 UNK         0.0000 
    126 C(3)        5.7607    6.7615   12.0791 C.ar      1 UNK         0.0000 
    127 C(4)        5.3904    7.6237   11.0502 C.ar      1 UNK         0.0000 
    128 C(5)        6.0938    7.6000    9.8465 C.ar      1 UNK         0.0000 
    129 C(6)        7.1716    6.7400    9.6916 C.ar      1 UNK         0.0000 
    130 C(7)        9.4759    4.4508   11.3638 C.2       1 UNK         0.0000 
    131 C(8)       10.5994    3.6493   10.7628 C.3       1 UNK         0.0000 
    132 H(1)        7.1169    5.2320   12.7324 H         1 UNK         0.0000 
    133 H(2)        5.2140    6.7508   13.0139 H         1 UNK         0.0000 
    134 H(3)        5.8008    8.2558    9.0359 H         1 UNK         0.0000 
    135 H(4)        7.7185    6.7236    8.7569 H         1 UNK         0.0000 
    136 H(5)        4.0214    8.8278   10.4237 H         1 UNK         0.0000 
    137 H(6)        8.9271    4.9580    9.5049 H         1 UNK         0.0000 
    138 H(7)       10.3809    2.6188   10.8722 H         1 UNK         0.0000 
    139 H(8)       10.7511    3.8565    9.7355 H         1 UNK         0.0000 
    140 H(9)       11.4799    3.8137   11.3277 H         1 UNK         0.0000 
    141 O(1)       15.4470    3.8867   12.4697 O.3       1 UNK         0.0000 
    142 O(2)       10.4731   -0.0578   11.1429 O.2       1 UNK         0.0000 
    143 N(1)       11.1242    0.4665   13.2546 N.am      1 UNK         0.0000 
    144 C(1)       12.2315    1.3064   13.0005 C.ar      1 UNK         0.0000 
    145 C(2)       12.9543    1.3083   11.8077 C.ar      1 UNK         0.0000 
    146 C(3)       14.0320    2.1750   11.6511 C.ar      1 UNK         0.0000 
    147 C(4)       14.4023    3.0372   12.6800 C.ar      1 UNK         0.0000 
    148 C(5)       13.6989    3.0135   13.8837 C.ar      1 UNK         0.0000 
    149 C(6)       12.6211    2.1535   14.0386 C.ar      1 UNK         0.0000 
    150 C(7)       10.3168   -0.1357   12.3664 C.2       1 UNK         0.0000 
    151 C(8)        9.1934   -0.9372   12.9673 C.3       1 UNK         0.0000 
    152 H(1)       12.6759    0.6455   10.9978 H         1 UNK         0.0000 
    153 H(2)       14.5788    2.1643   10.7162 H         1 UNK         0.0000 
    154 H(3)       13.9919    3.6693   14.6943 H         1 UNK         0.0000 
    155 H(4)       12.0742    2.1371   14.9733 H         1 UNK         0.0000 
    156 H(5)       15.7714    4.2413   13.3065 H         1 UNK         0.0000 
    157 H(6)       10.8657    0.3715   14.2253 H         1 UNK         0.0000 
    158 H(7)        9.4118   -1.9677   12.8580 H         1 UNK         0.0000 
    159 H(8)        9.0416   -0.7300   13.9947 H         1 UNK         0.0000 
    160 H(9)        8.3128   -0.7728   12.4025 H         1 UNK         0.0000 
    161 O(1)       11.1191    0.6998    1.7534 O.3       1 UNK         0.0000 
    162 O(2)        6.1452    4.6443    0.4267 O.2       1 UNK         0.0000 
    163 N(1)        6.7962    4.1200    2.5384 N.am      1 UNK         0.0000 
    164 C(1)        7.9035    3.2801    2.2843 C.ar      1 UNK         0.0000 
    165 C(2)        8.6264    3.2782    1.0915 C.ar      1 UNK         0.0000 
    166 C(3)        9.7040    2.4115    0.9348 C.ar      1 UNK         0.0000 
    167 C(4)       10.0743    1.5493    1.9637 C.ar      1 UNK         0.0000 
    168 C(5)        9.3710    1.5730    3.1674 C.ar      1 UNK         0.0000 
    169 C(6)        8.2932    2.4330    3.3223 C.ar      1 UNK         0.0000 
    170 C(7)        5.9889    4.7222    1.6501 C.2       1 UNK         0.0000 
    171 C(8)        4.8654    5.5237    2.2511 C.3       1 UNK         0.0000 
    172 H(1)        8.3479    3.9410    0.2815 H         1 UNK         0.0000 
    173 H(2)       10.2508    2.4222    0.0000 H         1 UNK         0.0000 
    174 H(3)        9.6639    0.9172    3.9780 H         1 UNK         0.0000 
    175 H(4)        7.7463    2.4494    4.2570 H         1 UNK         0.0000 
    176 H(5)       11.4434    0.3452    2.5902 H         1 UNK         0.0000 
    177 H(6)        6.5377    4.2150    3.5091 H         1 UNK         0.0000 
    178 H(7)        5.0839    6.5542    2.1418 H         1 UNK         0.0000 
    179 H(8)        4.7136    5.3165    3.2785 H         1 UNK         0.0000 
    180 H(9)        3.9849    5.3593    1.6863 H         1 UNK         0.0000 
    181 O(1)       -1.9276   -3.8867    7.7556 O.3       1 UNK         0.0000 
    182 O(2)        3.0463    0.0578    9.0824 O.2       1 UNK         0.0000 
    183 N(1)        2.3952   -0.4665    6.9707 N.am      1 UNK         0.0000 
    184 C(1)        1.2879   -1.3064    7.2247 C.ar      1 UNK         0.0000 
    185 C(2)        0.5651   -1.3083    8.4175 C.ar      1 UNK         0.0000 
    186 C(3)       -0.5126   -2.1750    8.5742 C.ar      1 UNK         0.0000 
    187 C(4)       -0.8829   -3.0372    7.5453 C.ar      1 UNK         0.0000 
    188 C(5)       -0.1796   -3.0135    6.3416 C.ar      1 UNK         0.0000 
    189 C(6)        0.8983   -2.1535    6.1867 C.ar      1 UNK         0.0000 
    190 C(7)        3.2026    0.1357    7.8589 C.2       1 UNK         0.0000 
    191 C(8)        4.3260    0.9372    7.2579 C.3       1 UNK         0.0000 
    192 H(1)        0.8435   -0.6455    9.2275 H         1 UNK         0.0000 
    193 H(2)       -1.0594   -2.1643    9.5090 H         1 UNK         0.0000 
    194 H(3)       -0.4725   -3.6693    5.5310 H         1 UNK         0.0000 
    195 H(4)        1.4452   -2.1371    5.2520 H         1 UNK         0.0000 
    196 H(5)       -2.2520   -4.2413    6.9188 H         1 UNK         0.0000 
    197 H(6)        2.6537   -0.3715    5.9999 H         1 UNK         0.0000 
    198 H(7)        4.1076    1.9677    7.3672 H         1 UNK         0.0000 
    199 H(8)        4.4778    0.7300    6.2305 H         1 UNK         0.0000 
    200 H(9)        5.2066    0.7728    7.8227 H         1 UNK         0.0000 
    201 O(1)        5.3184   -0.6998   18.2703 O.3       1 UNK         0.0000 
    202 O(2)       10.2923   -4.6443   19.5971 O.2       1 UNK         0.0000 
    203 N(1)        9.6413   -4.1200   17.4854 N.am      1 UNK         0.0000 
    204 C(1)        8.5339   -3.2801   17.7395 C.ar      1 UNK         0.0000 
    205 C(2)        7.8111   -3.2782   18.9323 C.ar      1 UNK         0.0000 
    206 C(3)        6.7334   -2.4115   19.0889 C.ar      1 UNK         0.0000 
    207 C(4)        6.3631   -1.5493   18.0600 C.ar      1 UNK         0.0000 
    208 C(5)        7.0665   -1.5730   16.8563 C.ar      1 UNK         0.0000 
    209 C(6)        8.1443   -2.4330   16.7014 C.ar      1 UNK         0.0000 
    210 C(7)       10.4486   -4.7222   18.3737 C.2       1 UNK         0.0000 
    211 C(8)       11.5721   -5.5237   17.7727 C.3       1 UNK         0.0000 
    212 H(1)        8.0896   -3.9410   19.7422 H         1 UNK         0.0000 
    213 H(2)        6.1867   -2.4222   20.0238 H         1 UNK         0.0000 
    214 H(3)        6.7735   -0.9172   16.0457 H         1 UNK         0.0000 
    215 H(4)        8.6912   -2.4494   15.7668 H         1 UNK         0.0000 
    216 H(5)        4.9941   -0.3452   17.4335 H         1 UNK         0.0000 
    217 H(6)        9.8998   -4.2150   16.5147 H         1 UNK         0.0000 
    218 H(7)       11.3536   -6.5542   17.8820 H         1 UNK         0.0000 
    219 H(8)       11.7238   -5.3165   16.7453 H         1 UNK         0.0000 
    220 H(9)       12.4526   -5.3593   18.3375 H         1 UNK         0.0000 
    221 O(1)        4.8457    3.8867   19.4795 O.3       1 UNK         0.0000 
    222 O(2)       -0.1282   -0.0578   18.1527 O.2       1 UNK         0.0000 
    223 N(1)        0.5229    0.4665   20.2644 N.am      1 UNK         0.0000 
    224 C(1)        1.6302    1.3064   20.0104 C.ar      1 UNK         0.0000 
    225 C(2)        2.3530    1.3083   18.8176 C.ar      1 UNK         0.0000 
    226 C(3)        3.4307    2.1750   18.6609 C.ar      1 UNK         0.0000 
    227 C(4)        3.8010    3.0372   19.6898 C.ar      1 UNK         0.0000 
    228 C(5)        3.0976    3.0135   20.8935 C.ar      1 UNK         0.0000 
    229 C(6)        2.0198    2.1535   21.0484 C.ar      1 UNK         0.0000 
    230 C(7)       -0.2845   -0.1357   19.3762 C.2       1 UNK         0.0000 
    231 C(8)       -1.4079   -0.9372   19.9772 C.3       1 UNK         0.0000 
    232 H(1)        2.0746    0.6455   18.0076 H         1 UNK         0.0000 
    233 H(2)        3.9774    2.1643   17.7261 H         1 UNK         0.0000 
    234 H(3)        3.3906    3.6693   21.7041 H         1 UNK         0.0000 
    235 H(4)        1.4729    2.1371   21.9831 H         1 UNK         0.0000 
    236 H(5)        5.1701    4.2413   20.3163 H         1 UNK         0.0000 
    237 H(6)        0.2644    0.3715   21.2352 H         1 UNK         0.0000 
    238 H(7)       -1.1895   -1.9677   19.8678 H         1 UNK         0.0000 
    239 H(8)       -1.5597   -0.7300   21.0046 H         1 UNK         0.0000 
    240 H(9)       -2.2885   -0.7728   19.4124 H         1 UNK         0.0000 
    241 O(1)        9.1737    9.8728    8.9648 O.3       1 UNK         0.0000 
    242 O(2)        4.1998   13.8173    7.6380 O.2       1 UNK         0.0000 
    243 N(1)        4.8508   13.2930    9.7497 N.am      1 UNK         0.0000 
    244 C(1)        5.9581   12.4531    9.4956 C.ar      1 UNK         0.0000 
    245 C(2)        6.6810   12.4512    8.3028 C.ar      1 UNK         0.0000 
    246 C(3)        7.7586   11.5845    8.1462 C.ar      1 UNK         0.0000 
    247 C(4)        8.1290   10.7223    9.1751 C.ar      1 UNK         0.0000 
    248 C(5)        7.4256   10.7460   10.3788 C.ar      1 UNK         0.0000 
    249 C(6)        6.3478   11.6060   10.5337 C.ar      1 UNK         0.0000 
    250 C(7)        4.0435   13.8952    8.8614 C.2       1 UNK         0.0000 
    251 C(8)        2.9200   14.6967    9.4624 C.3       1 UNK         0.0000 
    252 H(1)        6.4025   13.1140    7.4929 H         1 UNK         0.0000 
    253 H(2)        8.3054   11.5952    7.2113 H         1 UNK         0.0000 
    254 H(3)        7.7186   10.0902   11.1894 H         1 UNK         0.0000 
    255 H(4)        5.8009   11.6224   11.4683 H         1 UNK         0.0000 
    256 H(5)        9.4980    9.5182    9.8016 H         1 UNK         0.0000 
    257 H(6)        4.5923   13.3880   10.7204 H         1 UNK         0.0000 
    258 H(7)        3.1385   15.7272    9.3531 H         1 UNK         0.0000 
    259 H(8)        2.7683   14.4895   10.4898 H         1 UNK         0.0000 
    260 H(9)        2.0395   14.5323    8.8976 H         1 UNK         0.0000 
    261 O(1)       -0.9549    5.2863   14.7654 O.3       1 UNK         0.0000 
    262 O(2)        4.0190    9.2308   16.0922 O.2       1 UNK         0.0000 
    263 N(1)        3.3679    8.7065   13.9805 N.am      1 UNK         0.0000 
    264 C(1)        2.2606    7.8666   14.2346 C.ar      1 UNK         0.0000 
    265 C(2)        1.5378    7.8647   15.4274 C.ar      1 UNK         0.0000 
    266 C(3)        0.4601    6.9980   15.5840 C.ar      1 UNK         0.0000 
    267 C(4)        0.0898    6.1358   14.5551 C.ar      1 UNK         0.0000 
    268 C(5)        0.7931    6.1595   13.3514 C.ar      1 UNK         0.0000 
    269 C(6)        1.8709    7.0195   13.1965 C.ar      1 UNK         0.0000 
    270 C(7)        4.1753    9.3087   14.8687 C.2       1 UNK         0.0000 
    271 C(8)        5.2987   10.1102   14.2678 C.3       1 UNK         0.0000 
    272 H(1)        1.8162    8.5275   16.2373 H         1 UNK         0.0000 
    273 H(2)       -0.0867    7.0087   16.5188 H         1 UNK         0.0000 
    274 H(3)        0.5002    5.5037   12.5408 H         1 UNK         0.0000 
    275 H(4)        2.4179    7.0359   12.2618 H         1 UNK         0.0000 
    276 H(5)       -1.2793    4.9317   13.9286 H         1 UNK         0.0000 
    277 H(6)        3.6264    8.8015   13.0098 H         1 UNK         0.0000 
    278 H(7)        5.0803   11.1407   14.3771 H         1 UNK         0.0000 
    279 H(8)        5.4505    9.9030   13.2404 H         1 UNK         0.0000 
    280 H(9)        6.1792    9.9458   14.8326 H         1 UNK         0.0000 
    281 O(1)        3.3730   17.6462    4.2507 O.3       1 UNK         0.0000 
    282 O(2)        8.3469   13.7017    5.5774 O.2       1 UNK         0.0000 
    283 N(1)        7.6959   14.2260    3.4657 N.am      1 UNK         0.0000 
    284 C(1)        6.5885   15.0659    3.7198 C.ar      1 UNK         0.0000 
    285 C(2)        5.8657   15.0678    4.9126 C.ar      1 UNK         0.0000 
    286 C(3)        4.7881   15.9345    5.0693 C.ar      1 UNK         0.0000 
    287 C(4)        4.4177   16.7967    4.0404 C.ar      1 UNK         0.0000 
    288 C(5)        5.1211   16.7730    2.8367 C.ar      1 UNK         0.0000 
    289 C(6)        6.1989   15.9130    2.6817 C.ar      1 UNK         0.0000 
    290 C(7)        8.5032   13.6238    4.3540 C.2       1 UNK         0.0000 
    291 C(8)        9.6267   12.8223    3.7530 C.3       1 UNK         0.0000 
    292 H(1)        6.1442   14.4050    5.7226 H         1 UNK         0.0000 
    293 H(2)        4.2413   15.9238    6.0041 H         1 UNK         0.0000 
    294 H(3)        4.8281   17.4288    2.0261 H         1 UNK         0.0000 
    295 H(4)        6.7458   15.8966    1.7471 H         1 UNK         0.0000 
    296 H(5)        3.0487   18.0008    3.4139 H         1 UNK         0.0000 
    297 H(6)        7.9544   14.1310    2.4950 H         1 UNK         0.0000 
    298 H(7)        9.4082   11.7918    3.8623 H         1 UNK         0.0000 
    299 H(8)        9.7784   13.0295    2.7256 H         1 UNK         0.0000 
    300 H(9)       10.5072   12.9867    4.3178 H         1 UNK         0.0000 
    301 O(1)        2.9003   13.0597    5.4598 O.3       1 UNK         0.0000 
    302 O(2)       -2.0736    9.1152    4.1331 O.2       1 UNK         0.0000 
    303 N(1)       -1.4225    9.6395    6.2448 N.am      1 UNK         0.0000 
    304 C(1)       -0.3152   10.4794    5.9907 C.ar      1 UNK         0.0000 
    305 C(2)        0.4076   10.4813    4.7979 C.ar      1 UNK         0.0000 
    306 C(3)        1.4853   11.3480    4.6412 C.ar      1 UNK         0.0000 
    307 C(4)        1.8556   12.2102    5.6701 C.ar      1 UNK         0.0000 
    308 C(5)        1.1523   12.1865    6.8738 C.ar      1 UNK         0.0000 
    309 C(6)        0.0744   11.3265    7.0288 C.ar      1 UNK         0.0000 
    310 C(7)       -2.2299    9.0373    5.3565 C.2       1 UNK         0.0000 
    311 C(8)       -3.3533    8.2358    5.9575 C.3       1 UNK         0.0000 
    312 H(1)        0.1292    9.8185    3.9879 H         1 UNK         0.0000 
    313 H(2)        2.0321   11.3373    3.7064 H         1 UNK         0.0000 
    314 H(3)        1.4452   12.8423    7.6844 H         1 UNK         0.0000 
    315 H(4)       -0.4725   11.3101    7.9634 H         1 UNK         0.0000 
    316 H(5)        3.2247   13.4143    6.2966 H         1 UNK         0.0000 
    317 H(6)       -1.6810    9.5445    7.2155 H         1 UNK         0.0000 
    318 H(7)       -3.1349    7.2053    5.8482 H         1 UNK         0.0000 
    319 H(8)       -3.5051    8.4430    6.9849 H         1 UNK         0.0000 
    320 H(9)       -4.2339    8.4002    5.3927 H         1 UNK         0.0000 
    321 O(1)       10.1464    9.8728   15.9746 O.3       1 UNK         0.0000 
    322 O(2)        5.1725   13.8173   14.6478 O.2       1 UNK         0.0000 
    323 N(1)        5.8235   13.2930   16.7595 N.am      1 UNK         0.0000 
    324 C(1)        6.9308   12.4531   16.5055 C.ar      1 UNK         0.0000 
    325 C(2)        7.6537   12.4512   15.3126 C.ar      1 UNK         0.0000 
    326 C(3)        8.7313   11.5845   15.1560 C.ar      1 UNK         0.0000 
    327 C(4)        9.1016   10.7223   16.1849 C.ar      1 UNK         0.0000 
    328 C(5)        8.3983   10.7460   17.3886 C.ar      1 UNK         0.0000 
    329 C(6)        7.3205   11.6060   17.5435 C.ar      1 UNK         0.0000 
    330 C(7)        5.0162   13.8952   15.8713 C.2       1 UNK         0.0000 
    331 C(8)        3.8927   14.6967   16.4723 C.3       1 UNK         0.0000 
    332 H(1)        7.3752   13.1140   14.5027 H         1 UNK         0.0000 
    333 H(2)        9.2781   11.5952   14.2212 H         1 UNK         0.0000 
    334 H(3)        8.6912   10.0902   18.1992 H         1 UNK         0.0000 
    335 H(4)        6.7736   11.6224   18.4782 H         1 UNK         0.0000 
    336 H(5)       10.4707    9.5182   16.8114 H         1 UNK         0.0000 
    337 H(6)        5.5650   13.3880   17.7302 H         1 UNK         0.0000 
    338 H(7)        4.1112   15.7272   16.3629 H         1 UNK         0.0000 
    339 H(8)        3.7409   14.4895   17.4996 H         1 UNK         0.0000 
    340 H(9)        3.0122   14.5323   15.9074 H         1 UNK         0.0000 
    341 O(1)       11.5918    5.2863   21.7753 O.3       1 UNK         0.0000 
    342 O(2)       16.5657    9.2308   23.1020 O.2       1 UNK         0.0000 
    343 N(1)       15.9146    8.7065   20.9903 N.am      1 UNK         0.0000 
    344 C(1)       14.8073    7.8666   21.2444 C.ar      1 UNK         0.0000 
    345 C(2)       14.0845    7.8647   22.4372 C.ar      1 UNK         0.0000 
    346 C(3)       13.0068    6.9980   22.5939 C.ar      1 UNK         0.0000 
    347 C(4)       12.6365    6.1358   21.5650 C.ar      1 UNK         0.0000 
    348 C(5)       13.3398    6.1595   20.3613 C.ar      1 UNK         0.0000 
    349 C(6)       14.4176    7.0195   20.2063 C.ar      1 UNK         0.0000 
    350 C(7)       16.7220    9.3087   21.8786 C.2       1 UNK         0.0000 
    351 C(8)       17.8454   10.1102   21.2776 C.3       1 UNK         0.0000 
    352 H(1)       14.3629    8.5275   23.2472 H         1 UNK         0.0000 
    353 H(2)       12.4600    7.0087   23.5287 H         1 UNK         0.0000 
    354 H(3)       13.0469    5.5037   19.5507 H         1 UNK         0.0000 
    355 H(4)       14.9646    7.0359   19.2717 H         1 UNK         0.0000 
    356 H(5)       11.2674    4.9317   20.9385 H         1 UNK         0.0000 
    357 H(6)       16.1731    8.8015   20.0196 H         1 UNK         0.0000 
    358 H(7)       17.6270   11.1407   21.3869 H         1 UNK         0.0000 
    359 H(8)       17.9972    9.9030   20.2502 H         1 UNK         0.0000 
    360 H(9)       18.7259    9.9458   21.8424 H         1 UNK         0.0000 
    361 O(1)        4.3457   17.6462   11.2605 O.3       1 UNK         0.0000 
    362 O(2)        9.3196   13.7017   12.5873 O.2       1 UNK         0.0000 
    363 N(1)        8.6686   14.2260   10.4756 N.am      1 UNK         0.0000 
    364 C(1)        7.5612   15.0659   10.7296 C.ar      1 UNK         0.0000 
    365 C(2)        6.8384   15.0678   11.9225 C.ar      1 UNK         0.0000 
    366 C(3)        5.7607   15.9345   12.0791 C.ar      1 UNK         0.0000 
    367 C(4)        5.3904   16.7967   11.0502 C.ar      1 UNK         0.0000 
    368 C(5)        6.0938   16.7730    9.8465 C.ar      1 UNK         0.0000 
    369 C(6)        7.1716   15.9130    9.6916 C.ar      1 UNK         0.0000 
    370 C(7)        9.4759   13.6238   11.3638 C.2       1 UNK         0.0000 
    371 C(8)       10.5994   12.8223   10.7628 C.3       1 UNK         0.0000 
    372 H(1)        7.1169   14.4050   12.7324 H         1 UNK         0.0000 
    373 H(2)        5.2140   15.9238   13.0139 H         1 UNK         0.0000 
    374 H(3)        5.8008   17.4288    9.0359 H         1 UNK         0.0000 
    375 H(4)        7.7185   15.8966    8.7569 H         1 UNK         0.0000 
    376 H(5)        4.0214   18.0008   10.4237 H         1 UNK         0.0000 
    377 H(6)        8.9271   14.1310    9.5049 H         1 UNK         0.0000 
    378 H(7)       10.3809   11.7918   10.8722 H         1 UNK         0.0000 
    379 H(8)       10.7511   13.0295    9.7355 H         1 UNK         0.0000 
    380 H(9)       11.4799   12.9867   11.3277 H         1 UNK         0.0000 
    381 O(1)       15.4470   13.0597   12.4697 O.3       1 UNK         0.0000 
    382 O(2)       10.4731    9.1152   11.1429 O.2       1 UNK         0.0000 
    383 N(1)       11.1242    9.6395   13.2546 N.am      1 UNK         0.0000 
    384 C(1)       12.2315   10.4794   13.0005 C.ar      1 UNK         0.0000 
    385 C(2)       12.9543   10.4813   11.8077 C.ar      1 UNK         0.0000 
    386 C(3)       14.0320   11.3480   11.6511 C.ar      1 UNK         0.0000 
    387 C(4)       14.4023   12.2102   12.6800 C.ar      1 UNK         0.0000 
    388 C(5)       13.6989   12.1865   13.8837 C.ar      1 UNK         0.0000 
    389 C(6)       12.6211   11.3265   14.0386 C.ar      1 UNK         0.0000 
    390 C(7)       10.3168    9.0373   12.3664 C.2       1 UNK         0.0000 
    391 C(8)        9.1934    8.2358   12.9673 C.3       1 UNK         0.0000 
    392 H(1)       12.6759    9.8185   10.9978 H         1 UNK         0.0000 
    393 H(2)       14.5788   11.3373   10.7162 H         1 UNK         0.0000 
    394 H(3)       13.9919   12.8423   14.6943 H         1 UNK         0.0000 
    395 H(4)       12.0742   11.3101   14.9733 H         1 UNK         0.0000 
    396 H(5)       15.7714   13.4143   13.3065 H         1 UNK         0.0000 
    397 H(6)       10.8657    9.5445   14.2253 H         1 UNK         0.0000 
    398 H(7)        9.4118    7.2053   12.8580 H         1 UNK         0.0000 
    399 H(8)        9.0416    8.4430   13.9947 H         1 UNK         0.0000 
    400 H(9)        8.3128    8.4002   12.4025 H         1 UNK         0.0000 
    401 O(1)       11.1191    9.8728    1.7534 O.3       1 UNK         0.0000 
    402 O(2)        6.1452   13.8173    0.4267 O.2       1 UNK         0.0000 
    403 N(1)        6.7962   13.2930    2.5384 N.am      1 UNK         0.0000 
    404 C(1)        7.9035   12.4531    2.2843 C.ar      1 UNK         0.0000 
    405 C(2)        8.6264   12.4512    1.0915 C.ar      1 UNK         0.0000 
    406 C(3)        9.7040   11.5845    0.9348 C.ar      1 UNK         0.0000 
    407 C(4)       10.0743   10.7223    1.9637 C.ar      1 UNK         0.0000 
    408 C(5)        9.3710   10.7460    3.1674 C.ar      1 UNK         0.0000 
    409 C(6)        8.2932   11.6060    3.3223 C.ar      1 UNK         0.0000 
    410 C(7)        5.9889   13.8952    1.6501 C.2       1 UNK         0.0000 
    411 C(8)        4.8654   14.6967    2.2511 C.3       1 UNK         0.0000 
    412 H(1)        8.3479   13.1140    0.2815 H         1 UNK         0.0000 
    413 H(2)       10.2508   11.5952    0.0000 H         1 UNK         0.0000 
    414 H(3)        9.6639   10.0902    3.9780 H         1 UNK         0.0000 
    415 H(4)        7.7463   11.6224    4.2570 H         1 UNK         0.0000 
    416 H(5)       11.4434    9.5182    2.5902 H         1 UNK         0.0000 
    417 H(6)        6.5377   13.3880    3.5091 H         1 UNK         0.0000 
    418 H(7)        5.0839   15.7272    2.1418 H         1 UNK         0.0000 
    419 H(8)        4.7136   14.4895    3.2785 H         1 UNK         0.0000 
    420 H(9)        3.9849   14.5323    1.6863 H         1 UNK         0.0000 
    421 O(1)       -1.9276    5.2863    7.7556 O.3       1 UNK         0.0000 
    422 O(2)        3.0463    9.2308    9.0824 O.2       1 UNK         0.0000 
    423 N(1)        2.3952    8.7065    6.9707 N.am      1 UNK         0.0000 
    424 C(1)        1.2879    7.8666    7.2247 C.ar      1 UNK         0.0000 
    425 C(2)        0.5651    7.8647    8.4175 C.ar      1 UNK         0.0000 
    426 C(3)       -0.5126    6.9980    8.5742 C.ar      1 UNK         0.0000 
    427 C(4)       -0.8829    6.1358    7.5453 C.ar      1 UNK         0.0000 
    428 C(5)       -0.1796    6.1595    6.3416 C.ar      1 UNK         0.0000 
    429 C(6)        0.8983    7.0195    6.1867 C.ar      1 UNK         0.0000 
    430 C(7)        3.2026    9.3087    7.8589 C.2       1 UNK         0.0000 
    431 C(8)        4.3260   10.1102    7.2579 C.3       1 UNK         0.0000 
    432 H(1)        0.8435    8.5275    9.2275 H         1 UNK         0.0000 
    433 H(2)       -1.0594    7.0087    9.5090 H         1 UNK         0.0000 
    434 H(3)       -0.4725    5.5037    5.5310 H         1 UNK         0.0000 
    435 H(4)        1.4452    7.0359    5.2520 H         1 UNK         0.0000 
    436 H(5)       -2.2520    4.9317    6.9188 H         1 UNK         0.0000 
    437 H(6)        2.6537    8.8015    5.9999 H         1 UNK         0.0000 
    438 H(7)        4.1076   11.1407    7.3672 H         1 UNK         0.0000 
    439 H(8)        4.4778    9.9030    6.2305 H         1 UNK         0.0000 
    440 H(9)        5.2066    9.9458    7.8227 H         1 UNK         0.0000 
    441 O(1)        5.3184    8.4732   18.2703 O.3       1 UNK         0.0000 
    442 O(2)       10.2923    4.5287   19.5971 O.2       1 UNK         0.0000 
    443 N(1)        9.6413    5.0530   17.4854 N.am      1 UNK         0.0000 
    444 C(1)        8.5339    5.8929   17.7395 C.ar      1 UNK         0.0000 
    445 C(2)        7.8111    5.8948   18.9323 C.ar      1 UNK         0.0000 
    446 C(3)        6.7334    6.7615   19.0889 C.ar      1 UNK         0.0000 
    447 C(4)        6.3631    7.6237   18.0600 C.ar      1 UNK         0.0000 
    448 C(5)        7.0665    7.6000   16.8563 C.ar      1 UNK         0.0000 
    449 C(6)        8.1443    6.7400   16.7014 C.ar      1 UNK         0.0000 
    450 C(7)       10.4486    4.4508   18.3737 C.2       1 UNK         0.0000 
    451 C(8)       11.5721    3.6493   17.7727 C.3       1 UNK         0.0000 
    452 H(1)        8.0896    5.2320   19.7422 H         1 UNK         0.0000 
    453 H(2)        6.1867    6.7508   20.0238 H         1 UNK         0.0000 
    454 H(3)        6.7735    8.2558   16.0457 H         1 UNK         0.0000 
    455 H(4)        8.6912    6.7236   15.7668 H         1 UNK         0.0000 
    456 H(5)        4.9941    8.8278   17.4335 H         1 UNK         0.0000 
    457 H(6)        9.8998    4.9580   16.5147 H         1 UNK         0.0000 
    458 H(7)       11.3536    2.6188   17.8820 H         1 UNK         0.0000 
    459 H(8)       11.7238    3.8565   16.7453 H         1 UNK         0.0000 
    460 H(9)       12.4526    3.8137   18.3375 H         1 UNK         0.0000 
    461 O(1)        4.8457   13.0597   19.4795 O.3       1 UNK         0.0000 
    462 O(2)       -0.1282    9.1152   18.1527 O.2       1 UNK         0.0000 
    463 N(1)        0.5229    9.6395   20.2644 N.am      1 UNK         0.0000 
    464 C(1)        1.6302   10.4794   20.0104 C.ar      1 UNK         0.0000 
    465 C(2)        2.3530   10.4813   18.8176 C.ar      1 UNK         0.0000 
    466 C(3)        3.4307   11.3480   18.6609 C.ar      1 UNK         0.0000 
    467 C(4)        3.8010   12.2102   19.6898 C.ar      1 UNK         0.0000 
    468 C(5)        3.0976   12.1865   20.8935 C.ar      1 UNK         0.0000 
    469 C(6)        2.0198   11.3265   21.0484 C.ar      1 UNK         0.0000 
    470 C(7)       -0.2845    9.0373   19.3762 C.2       1 UNK         0.0000 
    471 C(8)       -1.4079    8.2358   19.9772 C.3       1 UNK         0.0000 
    472 H(1)        2.0746    9.8185   18.0076 H         1 UNK         0.0000 
    473 H(2)        3.9774   11.3373   17.7261 H         1 UNK         0.0000 
    474 H(3)        3.3906   12.8423   21.7041 H         1 UNK         0.0000 
    475 H(4)        1.4729   11.3101   21.9831 H         1 UNK         0.0000 
    476 H(5)        5.1701   13.4143   20.3163 H         1 UNK         0.0000 
    477 H(6)        0.2644    9.5445   21.2352 H         1 UNK         0.0000 
    478 H(7)       -1.1895    7.2053   19.8678 H         1 UNK         0.0000 
    479 H(8)       -1.5597    8.4430   21.0046 H         1 UNK         0.0000 
    480 H(9)       -2.2885    8.4002   19.4124 H         1 UNK         0.0000 
    481 O(1)        9.1737   19.0458    8.9648 O.3       1 UNK         0.0000 
    482 O(2)        4.1998   22.9903    7.6380 O.2       1 UNK         0.0000 
    483 N(1)        4.8508   22.4660    9.7497 N.am      1 UNK         0.0000 
    484 C(1)        5.9581   21.6261    9.4956 C.ar      1 UNK         0.0000 
    485 C(2)        6.6810   21.6242    8.3028 C.ar      1 UNK         0.0000 
    486 C(3)        7.7586   20.7575    8.1462 C.ar      1 UNK         0.0000 
    487 C(4)        8.1290   19.8953    9.1751 C.ar      1 UNK         0.0000 
    488 C(5)        7.4256   19.9190   10.3788 C.ar      1 UNK         0.0000 
    489 C(6)        6.3478   20.7790   10.5337 C.ar      1 UNK         0.0000 
    490 C(7)        4.0435   23.0682    8.8614 C.2       1 UNK         0.0000 
    491 C(8)        2.9200   23.8697    9.4624 C.3       1 UNK         0.0000 
    492 H(1)        6.4025   22.2870    7.4929 H         1 UNK         0.0000 
    493 H(2)        8.3054   20.7682    7.2113 H         1 UNK         0.0000 
    494 H(3)        7.7186   19.2632   11.1894 H         1 UNK         0.0000 
    495 H(4)        5.8009   20.7954   11.4683 H         1 UNK         0.0000 
    496 H(5)        9.4980   18.6912    9.8016 H         1 UNK         0.0000 
    497 H(6)        4.5923   22.5611   10.7204 H         1 UNK         0.0000 
    498 H(7)        3.1385   24.9002    9.3531 H         1 UNK         0.0000 
    499 H(8)        2.7683   23.6625   10.4898 H         1 UNK         0.0000 
    500 H(9)        2.0395   23.7053    8.8976 H         1 UNK         0.0000 
    501 O(1)       -0.9549   14.4593   14.7654 O.3       1 UNK         0.0000 
    502 O(2)        4.0190   18.4038   16.0922 O.2       1 UNK         0.0000 
    503 N(1)        3.3679   17.8795   13.9805 N.am      1 UNK         0.0000 
    504 C(1)        2.2606   17.0396   14.2346 C.ar      1 UNK         0.0000 
    505 C(2)        1.5378   17.0377   15.4274 C.ar      1 UNK         0.0000 
    506 C(3)        0.4601   16.1710   15.5840 C.ar      1 UNK         0.0000 
    507 C(4)        0.0898   15.3088   14.5551 C.ar      1 UNK         0.0000 
    508 C(5)        0.7931   15.3325   13.3514 C.ar      1 UNK         0.0000 
    509 C(6)        1.8709   16.1925   13.1965 C.ar      1 UNK         0.0000 
    510 C(7)        4.1753   18.4817   14.8687 C.2       1 UNK         0.0000 
    511 C(8)        5.2987   19.2832   14.2678 C.3       1 UNK         0.0000 
    512 H(1)        1.8162   17.7005   16.2373 H         1 UNK         0.0000 
    513 H(2)       -0.0867   16.1817   16.5188 H         1 UNK         0.0000 
    514 H(3)        0.5002   14.6767   12.5408 H         1 UNK         0.0000 
    515 H(4)        2.4179   16.2089   12.2618 H         1 UNK         0.0000 
    516 H(5)       -1.2793   14.1047   13.9286 H         1 UNK         0.0000 
    517 H(6)        3.6264   17.9746   13.0098 H         1 UNK         0.0000 
    518 H(7)        5.0803   20.3137   14.3771 H         1 UNK         0.0000 
    519 H(8)        5.4505   19.0760   13.2404 H         1 UNK         0.0000 
    520 H(9)        6.1792   19.1188   14.8326 H         1 UNK         0.0000 
    521 O(1)        3.3730   26.8192    4.2507 O.3       1 UNK         0.0000 
    522 O(2)        8.3469   22.8747    5.5774 O.2       1 UNK         0.0000 
    523 N(1)        7.6959   23.3990    3.4657 N.am      1 UNK         0.0000 
    524 C(1)        6.5885   24.2389    3.7198 C.ar      1 UNK         0.0000 
    525 C(2)        5.8657   24.2408    4.9126 C.ar      1 UNK         0.0000 
    526 C(3)        4.7881   25.1075    5.0693 C.ar      1 UNK         0.0000 
    527 C(4)        4.4177   25.9697    4.0404 C.ar      1 UNK         0.0000 
    528 C(5)        5.1211   25.9460    2.8367 C.ar      1 UNK         0.0000 
    529 C(6)        6.1989   25.0860    2.6817 C.ar      1 UNK         0.0000 
    530 C(7)        8.5032   22.7968    4.3540 C.2       1 UNK         0.0000 
    531 C(8)        9.6267   21.9953    3.7530 C.3       1 UNK         0.0000 
    532 H(1)        6.1442   23.5780    5.7226 H         1 UNK         0.0000 
    533 H(2)        4.2413   25.0968    6.0041 H         1 UNK         0.0000 
    534 H(3)        4.8281   26.6018    2.0261 H         1 UNK         0.0000 
    535 H(4)        6.7458   25.0696    1.7471 H         1 UNK         0.0000 
    536 H(5)        3.0487   27.1738    3.4139 H         1 UNK         0.0000 
    537 H(6)        7.9544   23.3040    2.4950 H         1 UNK         0.0000 
    538 H(7)        9.4082   20.9648    3.8623 H         1 UNK         0.0000 
    539 H(8)        9.7784   22.2025    2.7256 H         1 UNK         0.0000 
    540 H(9)       10.5072   22.1597    4.3178 H         1 UNK         0.0000 
    541 O(1)        2.9003   22.2327    5.4598 O.3       1 UNK         0.0000 
    542 O(2)       -2.0736   18.2882    4.1331 O.2       1 UNK         0.0000 
    543 N(1)       -1.4225   18.8125    6.2448 N.am      1 UNK         0.0000 
    544 C(1)       -0.3152   19.6524    5.9907 C.ar      1 UNK         0.0000 
    545 C(2)        0.4076   19.6543    4.7979 C.ar      1 UNK         0.0000 
    546 C(3)        1.4853   20.5210    4.6412 C.ar      1 UNK         0.0000 
    547 C(4)        1.8556   21.3832    5.6701 C.ar      1 UNK         0.0000 
    548 C(5)        1.1523   21.3595    6.8738 C.ar      1 UNK         0.0000 
    549 C(6)        0.0744   20.4995    7.0288 C.ar      1 UNK         0.0000 
    550 C(7)       -2.2299   18.2103    5.3565 C.2       1 UNK         0.0000 
    551 C(8)       -3.3533   17.4088    5.9575 C.3       1 UNK         0.0000 
    552 H(1)        0.1292   18.9915    3.9879 H         1 UNK         0.0000 
    553 H(2)        2.0321   20.5103    3.7064 H         1 UNK         0.0000 
    554 H(3)        1.4452   22.0153    7.6844 H         1 UNK         0.0000 
    555 H(4)       -0.4725   20.4831    7.9634 H         1 UNK         0.0000 
    556 H(5)        3.2247   22.5873    6.2966 H         1 UNK         0.0000 
    557 H(6)       -1.6810   18.7175    7.2155 H         1 UNK         0.0000 
    558 H(7)       -3.1349   16.3783    5.8482 H         1 UNK         0.0000 
    559 H(8)       -3.5051   17.6160    6.9849 H         1 UNK         0.0000 
    560 H(9)       -4.2339   17.5732    5.3927 H         1 UNK         0.0000 
    561 O(1)       10.1464   19.0458   15.9746 O.3       1 UNK         0.0000 
    562 O(2)        5.1725   22.9903   14.6478 O.2       1 UNK         0.0000 
    563 N(1)        5.8235   22.4660   16.7595 N.am      1 UNK         0.0000 
    564 C(1)        6.9308   21.6261   16.5055 C.ar      1 UNK         0.0000 
    565 C(2)        7.6537   21.6242   15.3126 C.ar      1 UNK         0.0000 
    566 C(3)        8.7313   20.7575   15.1560 C.ar      1 UNK         0.0000 
    567 C(4)        9.1016   19.8953   16.1849 C.ar      1 UNK         0.0000 
    568 C(5)        8.3983   19.9190   17.3886 C.ar      1 UNK         0.0000 
    569 C(6)        7.3205   20.7790   17.5435 C.ar      1 UNK         0.0000 
    570 C(7)        5.0162   23.0682   15.8713 C.2       1 UNK         0.0000 
    571 C(8)        3.8927   23.8697   16.4723 C.3       1 UNK         0.0000 
    572 H(1)        7.3752   22.2870   14.5027 H         1 UNK         0.0000 
    573 H(2)        9.2781   20.7682   14.2212 H         1 UNK         0.0000 
    574 H(3)        8.6912   19.2632   18.1992 H         1 UNK         0.0000 
    575 H(4)        6.7736   20.7954   18.4782 H         1 UNK         0.0000 
    576 H(5)       10.4707   18.6912   16.8114 H         1 UNK         0.0000 
    577 H(6)        5.5650   22.5611   17.7302 H         1 UNK         0.0000 
    578 H(7)        4.1112   24.9002   16.3629 H         1 UNK         0.0000 
    579 H(8)        3.7409   23.6625   17.4996 H         1 UNK         0.0000 
    580 H(9)        3.0122   23.7053   15.9074 H         1 UNK         0.0000 
    581 O(1)       11.5918   14.4593   21.7753 O.3       1 UNK         0.0000 
    582 O(2)       16.5657   18.4038   23.1020 O.2       1 UNK         0.0000 
    583 N(1)       15.9146   17.8795   20.9903 N.am      1 UNK         0.0000 
    584 C(1)       14.8073   17.0396   21.2444 C.ar      1 UNK         0.0000 
    585 C(2)       14.0845   17.0377   22.4372 C.ar      1 UNK         0.0000 
    586 C(3)       13.0068   16.1710   22.5939 C.ar      1 UNK         0.0000 
    587 C(4)       12.6365   15.3088   21.5650 C.ar      1 UNK         0.0000 
    588 C(5)       13.3398   15.3325   20.3613 C.ar      1 UNK         0.0000 
    589 C(6)       14.4176   16.1925   20.2063 C.ar      1 UNK         0.0000 
    590 C(7)       16.7220   18.4817   21.8786 C.2       1 UNK         0.0000 
    591 C(8)       17.8454   19.2832   21.2776 C.3       1 UNK         0.0000 
    592 H(1)       14.3629   17.7005   23.2472 H         1 UNK         0.0000 
    593 H(2)       12.4600   16.1817   23.5287 H         1 UNK         0.0000 
    594 H(3)       13.0469   14.6767   19.5507 H         1 UNK         0.0000 
    595 H(4)       14.9646   16.2089   19.2717 H         1 UNK         0.0000 
    596 H(5)       11.2674   14.1047   20.9385 H         1 UNK         0.0000 
    597 H(6)       16.1731   17.9746   20.0196 H         1 UNK         0.0000 
    598 H(7)       17.6270   20.3137   21.3869 H         1 UNK         0.0000 
    599 H(8)       17.9972   19.0760   20.2502 H         1 UNK         0.0000 
    600 H(9)       18.7259   19.1188   21.8424 H         1 UNK         0.0000 
    601 O(1)        4.3457   26.8192   11.2605 O.3       1 UNK         0.0000 
    602 O(2)        9.3196   22.8747   12.5873 O.2       1 UNK         0.0000 
    603 N(1)        8.6686   23.3990   10.4756 N.am      1 UNK         0.0000 
    604 C(1)        7.5612   24.2389   10.7296 C.ar      1 UNK         0.0000 
    605 C(2)        6.8384   24.2408   11.9225 C.ar      1 UNK         0.0000 
    606 C(3)        5.7607   25.1075   12.0791 C.ar      1 UNK         0.0000 
    607 C(4)        5.3904   25.9697   11.0502 C.ar      1 UNK         0.0000 
    608 C(5)        6.0938   25.9460    9.8465 C.ar      1 UNK         0.0000 
    609 C(6)        7.1716   25.0860    9.6916 C.ar      1 UNK         0.0000 
    610 C(7)        9.4759   22.7968   11.3638 C.2       1 UNK         0.0000 
    611 C(8)       10.5994   21.9953   10.7628 C.3       1 UNK         0.0000 
    612 H(1)        7.1169   23.5780   12.7324 H         1 UNK         0.0000 
    613 H(2)        5.2140   25.0968   13.0139 H         1 UNK         0.0000 
    614 H(3)        5.8008   26.6018    9.0359 H         1 UNK         0.0000 
    615 H(4)        7.7185   25.0696    8.7569 H         1 UNK         0.0000 
    616 H(5)        4.0214   27.1738   10.4237 H         1 UNK         0.0000 
    617 H(6)        8.9271   23.3040    9.5049 H         1 UNK         0.0000 
    618 H(7)       10.3809   20.9648   10.8722 H         1 UNK         0.0000 
    619 H(8)       10.7511   22.2025    9.7355 H         1 UNK         0.0000 
    620 H(9)       11.4799   22.1597   11.3277 H         1 UNK         0.0000 
    621 O(1)       15.4470   22.2327   12.4697 O.3       1 UNK         0.0000 
    622 O(2)       10.4731   18.2882   11.1429 O.2       1 UNK         0.0000 
    623 N(1)       11.1242   18.8125   13.2546 N.am      1 UNK         0.0000 
    624 C(1)       12.2315   19.6524   13.0005 C.ar      1 UNK         0.0000 
    625 C(2)       12.9543   19.6543   11.8077 C.ar      1 UNK         0.0000 
    626 C(3)       14.0320   20.5210   11.6511 C.ar      1 UNK         0.0000 
    627 C(4)       14.4023   21.3832   12.6800 C.ar      1 UNK         0.0000 
    628 C(5)       13.6989   21.3595   13.8837 C.ar      1 UNK         0.0000 
    629 C(6)       12.6211   20.4995   14.0386 C.ar      1 UNK         0.0000 
    630 C(7)       10.3168   18.2103   12.3664 C.2       1 UNK         0.0000 
    631 C(8)        9.1934   17.4088   12.9673 C.3       1 UNK         0.0000 
    632 H(1)       12.6759   18.9915   10.9978 H         1 UNK         0.0000 
    633 H(2)       14.5788   20.5103   10.7162 H         1 UNK         0.0000 
    634 H(3)       13.9919   22.0153   14.6943 H         1 UNK         0.0000 
    635 H(4)       12.0742   20.4831   14.9733 H         1 UNK         0.0000 
    636 H(5)       15.7714   22.5873   13.3065 H         1 UNK         0.0000 
    637 H(6)       10.8657   18.7175   14.2253 H         1 UNK         0.0000 
    638 H(7)        9.4118   16.3783   12.8580 H         1 UNK         0.0000 
    639 H(8)        9.0416   17.6160   13.9947 H         1 UNK         0.0000 
    640 H(9)        8.3128   17.5732   12.4025 H         1 UNK         0.0000 
    641 O(1)       11.1191   19.0458    1.7534 O.3       1 UNK         0.0000 
    642 O(2)        6.1452   22.9903    0.4267 O.2       1 UNK         0.0000 
    643 N(1)        6.7962   22.4660    2.5384 N.am      1 UNK         0.0000 
    644 C(1)        7.9035   21.6261    2.2843 C.ar      1 UNK         0.0000 
    645 C(2)        8.6264   21.6242    1.0915 C.ar      1 UNK         0.0000 
    646 C(3)        9.7040   20.7575    0.9348 C.ar      1 UNK         0.0000 
    647 C(4)       10.0743   19.8953    1.9637 C.ar      1 UNK         0.0000 
    648 C(5)        9.3710   19.9190    3.1674 C.ar      1 UNK         0.0000 
    649 C(6)        8.2932   20.7790    3.3223 C.ar      1 UNK         0.0000 
    650 C(7)        5.9889   23.0682    1.6501 C.2       1 UNK         0.0000 
    651 C(8)        4.8654   23.8697    2.2511 C.3       1 UNK         0.0000 
    652 H(1)        8.3479   22.2870    0.2815 H         1 UNK         0.0000 
    653 H(2)       10.2508   20.7682    0.0000 H         1 UNK         0.0000 
    654 H(3)        9.6639   19.2632    3.9780 H         1 UNK         0.0000 
    655 H(4)        7.7463   20.7954    4.2570 H         1 UNK         0.0000 
    656 H(5)       11.4434   18.6912    2.5902 H         1 UNK         0.0000 
    657 H(6)        6.5377   22.5611    3.5091 H         1 UNK         0.0000 
    658 H(7)        5.0839   24.9002    2.1418 H         1 UNK         0.0000 
    659 H(8)        4.7136   23.6625    3.2785 H         1 UNK         0.0000 
    660 H(9)        3.9849   23.7053    1.6863 H         1 UNK         0.0000 
    661 O(1)       -1.9276   14.4593    7.7556 O.3       1 UNK         0.0000 
    662 O(2)        3.0463   18.4038    9.0824 O.2       1 UNK         0.0000 
    663 N(1)        2.3952   17.8795    6.9707 N.am      1 UNK         0.0000 
    664 C(1)        1.2879   17.0396    7.2247 C.ar      1 UNK         0.0000 
    665 C(2)        0.5651   17.0377    8.4175 C.ar      1 UNK         0.0000 
    666 C(3)       -0.5126   16.1710    8.5742 C.ar      1 UNK         0.0000 
    667 C(4)       -0.8829   15.3088    7.5453 C.ar      1 UNK         0.0000 
    668 C(5)       -0.1796   15.3325    6.3416 C.ar      1 UNK         0.0000 
    669 C(6)        0.8983   16.1925    6.1867 C.ar      1 UNK         0.0000 
    670 C(7)        3.2026   18.4817    7.8589 C.2       1 UNK         0.0000 
    671 C(8)        4.3260   19.2832    7.2579 C.3       1 UNK         0.0000 
    672 H(1)        0.8435   17.7005    9.2275 H         1 UNK         0.0000 
    673 H(2)       -1.0594   16.1817    9.5090 H         1 UNK         0.0000 
    674 H(3)       -0.4725   14.6767    5.5310 H         1 UNK         0.0000 
    675 H(4)        1.4452   16.2089    5.2520 H         1 UNK         0.0000 
    676 H(5)       -2.2520   14.1047    6.9188 H         1 UNK         0.0000 
    677 H(6)        2.6537   17.9746    5.9999 H         1 UNK         0.0000 
    678 H(7)        4.1076   20.3137    7.3672 H         1 UNK         0.0000 
    679 H(8)        4.4778   19.0760    6.2305 H         1 UNK         0.0000 
    680 H(9)        5.2066   19.1188    7.8227 H         1 UNK         0.0000 
    681 O(1)        5.3184   17.6462   18.2703 O.3       1 UNK         0.0000 
    682 O(2)       10.2923   13.7017   19.5971 O.2       1 UNK         0.0000 
    683 N(1)        9.6413   14.2260   17.4854 N.am      1 UNK         0.0000 
    684 C(1)        8.5339   15.0659   17.7395 C.ar      1 UNK         0.0000 
    685 C(2)        7.8111   15.0678   18.9323 C.ar      1 UNK         0.0000 
    686 C(3)        6.7334   15.9345   19.0889 C.ar      1 UNK         0.0000 
    687 C(4)        6.3631   16.7967   18.0600 C.ar      1 UNK         0.0000 
    688 C(5)        7.0665   16.7730   16.8563 C.ar      1 UNK         0.0000 
    689 C(6)        8.1443   15.9130   16.7014 C.ar      1 UNK         0.0000 
    690 C(7)       10.4486   13.6238   18.3737 C.2       1 UNK         0.0000 
    691 C(8)       11.5721   12.8223   17.7727 C.3       1 UNK         0.0000 
    692 H(1)        8.0896   14.4050   19.7422 H         1 UNK         0.0000 
    693 H(2)        6.1867   15.9238   20.0238 H         1 UNK         0.0000 
    694 H(3)        6.7735   17.4288   16.0457 H         1 UNK         0.0000 
    695 H(4)        8.6912   15.8966   15.7668 H         1 UNK         0.0000 
    696 H(5)        4.9941   18.0008   17.4335 H         1 UNK         0.0000 
    697 H(6)        9.8998   14.1310   16.5147 H         1 UNK         0.0000 
    698 H(7)       11.3536   11.7918   17.8820 H         1 UNK         0.0000 
    699 H(8)       11.7238   13.0295   16.7453 H         1 UNK         0.0000 
    700 H(9)       12.4526   12.9867   18.3375 H         1 UNK         0.0000 
    701 O(1)        4.8457   22.2327   19.4795 O.3       1 UNK         0.0000 
    702 O(2)       -0.1282   18.2882   18.1527 O.2       1 UNK         0.0000 
    703 N(1)        0.5229   18.8125   20.2644 N.am      1 UNK         0.0000 
    704 C(1)        1.6302   19.6524   20.0104 C.ar      1 UNK         0.0000 
    705 C(2)        2.3530   19.6543   18.8176 C.ar      1 UNK         0.0000 
    706 C(3)        3.4307   20.5210   18.6609 C.ar      1 UNK         0.0000 
    707 C(4)        3.8010   21.3832   19.6898 C.ar      1 UNK         0.0000 
    708 C(5)        3.0976   21.3595   20.8935 C.ar      1 UNK         0.0000 
    709 C(6)        2.0198   20.4995   21.0484 C.ar      1 UNK         0.0000 
    710 C(7)       -0.2845   18.2103   19.3762 C.2       1 UNK         0.0000 
    711 C(8)       -1.4079   17.4088   19.9772 C.3       1 UNK         0.0000 
    712 H(1)        2.0746   18.9915   18.0076 H         1 UNK         0.0000 
    713 H(2)        3.9774   20.5103   17.7261 H         1 UNK         0.0000 
    714 H(3)        3.3906   22.0153   21.7041 H         1 UNK         0.0000 
    715 H(4)        1.4729   20.4831   21.9831 H         1 UNK         0.0000 
    716 H(5)        5.1701   22.5873   20.3163 H         1 UNK         0.0000 
    717 H(6)        0.2644   18.7175   21.2352 H         1 UNK         0.0000 
    718 H(7)       -1.1895   16.3783   19.8678 H         1 UNK         0.0000 
    719 H(8)       -1.5597   17.6160   21.0046 H         1 UNK         0.0000 
    720 H(9)       -2.2885   17.5732   19.4124 H         1 UNK         0.0000 
    721 O(1)       20.7477    0.6998    8.9648 O.3       1 UNK         0.0000 
    722 O(2)       15.7738    4.6443    7.6380 O.2       1 UNK         0.0000 
    723 N(1)       16.4248    4.1200    9.7497 N.am      1 UNK         0.0000 
    724 C(1)       17.5321    3.2801    9.4956 C.ar      1 UNK         0.0000 
    725 C(2)       18.2550    3.2782    8.3028 C.ar      1 UNK         0.0000 
    726 C(3)       19.3326    2.4115    8.1462 C.ar      1 UNK         0.0000 
    727 C(4)       19.7030    1.5493    9.1751 C.ar      1 UNK         0.0000 
    728 C(5)       18.9996    1.5730   10.3788 C.ar      1 UNK         0.0000 
    729 C(6)       17.9218    2.4330   10.5337 C.ar      1 UNK         0.0000 
    730 C(7)       15.6175    4.7222    8.8614 C.2       1 UNK         0.0000 
    731 C(8)       14.4940    5.5237    9.4624 C.3       1 UNK         0.0000 
    732 H(1)       17.9765    3.9410    7.4929 H         1 UNK         0.0000 
    733 H(2)       19.8794    2.4222    7.2113 H         1 UNK         0.0000 
    734 H(3)       19.2926    0.9172   11.1894 H         1 UNK         0.0000 
    735 H(4)       17.3749    2.4494   11.4683 H         1 UNK         0.0000 
    736 H(5)       21.0720    0.3452    9.8016 H         1 UNK         0.0000 
    737 H(6)       16.1663    4.2150   10.7204 H         1 UNK         0.0000 
    738 H(7)       14.7125    6.5542    9.3531 H         1 UNK         0.0000 
    739 H(8)       14.3423    5.3165   10.4898 H         1 UNK         0.0000 
    740 H(9)       13.6135    5.3593    8.8976 H         1 UNK         0.0000 
    741 O(1)       10.6191   -3.8867   14.7654 O.3       1 UNK         0.0000 
    742 O(2)       15.5930    0.0578   16.0922 O.2       1 UNK         0.0000 
    743 N(1)       14.9419   -0.4665   13.9805 N.am      1 UNK         0.0000 
    744 C(1)       13.8346   -1.3064   14.2346 C.ar      1 UNK         0.0000 
    745 C(2)       13.1118   -1.3083   15.4274 C.ar      1 UNK         0.0000 
    746 C(3)       12.0341   -2.1750   15.5840 C.ar      1 UNK         0.0000 
    747 C(4)       11.6638   -3.0372   14.5551 C.ar      1 UNK         0.0000 
    748 C(5)       12.3671   -3.0135   13.3514 C.ar      1 UNK         0.0000 
    749 C(6)       13.4450   -2.1535   13.1965 C.ar      1 UNK         0.0000 
    750 C(7)       15.7493    0.1357   14.8687 C.2       1 UNK         0.0000 
    751 C(8)       16.8727    0.9372   14.2678 C.3       1 UNK         0.0000 
    752 H(1)       13.3902   -0.6455   16.2373 H         1 UNK         0.0000 
    753 H(2)       11.4873   -2.1643   16.5188 H         1 UNK         0.0000 
    754 H(3)       12.0742   -3.6693   12.5408 H         1 UNK         0.0000 
    755 H(4)       13.9919   -2.1371   12.2618 H         1 UNK         0.0000 
    756 H(5)       10.2947   -4.2413   13.9286 H         1 UNK         0.0000 
    757 H(6)       15.2004   -0.3715   13.0098 H         1 UNK         0.0000 
    758 H(7)       16.6543    1.9677   14.3771 H         1 UNK         0.0000 
    759 H(8)       17.0245    0.7300   13.2404 H         1 UNK         0.0000 
    760 H(9)       17.7532    0.7728   14.8326 H         1 UNK         0.0000 
    761 O(1)       14.9470    8.4732    4.2507 O.3       1 UNK         0.0000 
    762 O(2)       19.9209    4.5287    5.5774 O.2       1 UNK         0.0000 
    763 N(1)       19.2699    5.0530    3.4657 N.am      1 UNK         0.0000 
    764 C(1)       18.1625    5.8929    3.7198 C.ar      1 UNK         0.0000 
    765 C(2)       17.4397    5.8948    4.9126 C.ar      1 UNK         0.0000 
    766 C(3)       16.3620    6.7615    5.0693 C.ar      1 UNK         0.0000 
    767 C(4)       15.9917    7.6237    4.0404 C.ar      1 UNK         0.0000 
    768 C(5)       16.6951    7.6000    2.8367 C.ar      1 UNK         0.0000 
    769 C(6)       17.7729    6.7400    2.6817 C.ar      1 UNK         0.0000 
    770 C(7)       20.0772    4.4508    4.3540 C.2       1 UNK         0.0000 
    771 C(8)       21.2007    3.6493    3.7530 C.3       1 UNK         0.0000 
    772 H(1)       17.7182    5.2320    5.7226 H         1 UNK         0.0000 
    773 H(2)       15.8153    6.7508    6.0041 H         1 UNK         0.0000 
    774 H(3)       16.4021    8.2558    2.0261 H         1 UNK         0.0000 
    775 H(4)       18.3198    6.7236    1.7471 H         1 UNK         0.0000 
    776 H(5)       14.6227    8.8278    3.4139 H         1 UNK         0.0000 
    777 H(6)       19.5284    4.9580    2.4950 H         1 UNK         0.0000 
    778 H(7)       20.9822    2.6188    3.8623 H         1 UNK         0.0000 
    779 H(8)       21.3524    3.8565    2.7256 H         1 UNK         0.0000 
    780 H(9)       22.0812    3.8137    4.3178 H         1 UNK         0.0000 
    781 O(1)       14.4743    3.8867    5.4598 O.3       1 UNK         0.0000 
    782 O(2)        9.5004   -0.0578    4.1331 O.2       1 UNK         0.0000 
    783 N(1)       10.1515    0.4665    6.2448 N.am      1 UNK         0.0000 
    784 C(1)       11.2588    1.3064    5.9907 C.ar      1 UNK         0.0000 
    785 C(2)       11.9816    1.3083    4.7979 C.ar      1 UNK         0.0000 
    786 C(3)       13.0593    2.1750    4.6412 C.ar      1 UNK         0.0000 
    787 C(4)       13.4296    3.0372    5.6701 C.ar      1 UNK         0.0000 
    788 C(5)       12.7263    3.0135    6.8738 C.ar      1 UNK         0.0000 
    789 C(6)       11.6484    2.1535    7.0288 C.ar      1 UNK         0.0000 
    790 C(7)        9.3441   -0.1357    5.3565 C.2       1 UNK         0.0000 
    791 C(8)        8.2207   -0.9372    5.9575 C.3       1 UNK         0.0000 
    792 H(1)       11.7032    0.6455    3.9879 H         1 UNK         0.0000 
    793 H(2)       13.6061    2.1643    3.7064 H         1 UNK         0.0000 
    794 H(3)       13.0192    3.6693    7.6844 H         1 UNK         0.0000 
    795 H(4)       11.1015    2.1371    7.9634 H         1 UNK         0.0000 
    796 H(5)       14.7987    4.2413    6.2966 H         1 UNK         0.0000 
    797 H(6)        9.8930    0.3715    7.2155 H         1 UNK         0.0000 
    798 H(7)        8.4391   -1.9677    5.8482 H         1 UNK         0.0000 
    799 H(8)        8.0689   -0.7300    6.9849 H         1 UNK         0.0000 
    800 H(9)        7.3401   -0.7728    5.3927 H         1 UNK         0.0000 
    801 O(1)       21.7204    0.6998   15.9746 O.3       1 UNK         0.0000 
    802 O(2)       16.7465    4.6443   14.6478 O.2       1 UNK         0.0000 
    803 N(1)       17.3975    4.1200   16.7595 N.am      1 UNK         0.0000 
    804 C(1)       18.5048    3.2801   16.5055 C.ar      1 UNK         0.0000 
    805 C(2)       19.2277    3.2782   15.3126 C.ar      1 UNK         0.0000 
    806 C(3)       20.3053    2.4115   15.1560 C.ar      1 UNK         0.0000 
    807 C(4)       20.6756    1.5493   16.1849 C.ar      1 UNK         0.0000 
    808 C(5)       19.9723    1.5730   17.3886 C.ar      1 UNK         0.0000 
    809 C(6)       18.8945    2.4330   17.5435 C.ar      1 UNK         0.0000 
    810 C(7)       16.5902    4.7222   15.8713 C.2       1 UNK         0.0000 
    811 C(8)       15.4667    5.5237   16.4723 C.3       1 UNK         0.0000 
    812 H(1)       18.9492    3.9410   14.5027 H         1 UNK         0.0000 
    813 H(2)       20.8521    2.4222   14.2212 H         1 UNK         0.0000 
    814 H(3)       20.2653    0.9172   18.1992 H         1 UNK         0.0000 
    815 H(4)       18.3476    2.4494   18.4782 H         1 UNK         0.0000 
    816 H(5)       22.0447    0.3452   16.8114 H         1 UNK         0.0000 
    817 H(6)       17.1390    4.2150   17.7302 H         1 UNK         0.0000 
    818 H(7)       15.6852    6.5542   16.3629 H         1 UNK         0.0000 
    819 H(8)       15.3149    5.3165   17.4996 H         1 UNK         0.0000 
    820 H(9)       14.5862    5.3593   15.9074 H         1 UNK         0.0000 
    821 O(1)       23.1658   -3.8867   21.7753 O.3       1 UNK         0.0000 
    822 O(2)       28.1396    0.0578   23.1020 O.2       1 UNK         0.0000 
    823 N(1)       27.4886   -0.4665   20.9903 N.am      1 UNK         0.0000 
    824 C(1)       26.3813   -1.3064   21.2444 C.ar      1 UNK         0.0000 
    825 C(2)       25.6585   -1.3083   22.4372 C.ar      1 UNK         0.0000 
    826 C(3)       24.5808   -2.1750   22.5939 C.ar      1 UNK         0.0000 
    827 C(4)       24.2105   -3.0372   21.5650 C.ar      1 UNK         0.0000 
    828 C(5)       24.9138   -3.0135   20.3613 C.ar      1 UNK         0.0000 
    829 C(6)       25.9916   -2.1535   20.2063 C.ar      1 UNK         0.0000 
    830 C(7)       28.2960    0.1357   21.8786 C.2       1 UNK         0.0000 
    831 C(8)       29.4194    0.9372   21.2776 C.3       1 UNK         0.0000 
    832 H(1)       25.9369   -0.6455   23.2472 H         1 UNK         0.0000 
    833 H(2)       24.0340   -2.1643   23.5287 H         1 UNK         0.0000 
    834 H(3)       24.6209   -3.6693   19.5507 H         1 UNK         0.0000 
    835 H(4)       26.5386   -2.1371   19.2717 H         1 UNK         0.0000 
    836 H(5)       22.8414   -4.2413   20.9385 H         1 UNK         0.0000 
    837 H(6)       27.7471   -0.3715   20.0196 H         1 UNK         0.0000 
    838 H(7)       29.2010    1.9677   21.3869 H         1 UNK         0.0000 
    839 H(8)       29.5712    0.7300   20.2502 H         1 UNK         0.0000 
    840 H(9)       30.2999    0.7728   21.8424 H         1 UNK         0.0000 
    841 O(1)       15.9197    8.4732   11.2605 O.3       1 UNK         0.0000 
    842 O(2)       20.8936    4.5287   12.5873 O.2       1 UNK         0.0000 
    843 N(1)       20.2426    5.0530   10.4756 N.am      1 UNK         0.0000 
    844 C(1)       19.1352    5.8929   10.7296 C.ar      1 UNK         0.0000 
    845 C(2)       18.4124    5.8948   11.9225 C.ar      1 UNK         0.0000 
    846 C(3)       17.3347    6.7615   12.0791 C.ar      1 UNK         0.0000 
    847 C(4)       16.9644    7.6237   11.0502 C.ar      1 UNK         0.0000 
    848 C(5)       17.6678    7.6000    9.8465 C.ar      1 UNK         0.0000 
    849 C(6)       18.7456    6.7400    9.6916 C.ar      1 UNK         0.0000 
    850 C(7)       21.0499    4.4508   11.3638 C.2       1 UNK         0.0000 
    851 C(8)       22.1734    3.6493   10.7628 C.3       1 UNK         0.0000 
    852 H(1)       18.6909    5.2320   12.7324 H         1 UNK         0.0000 
    853 H(2)       16.7880    6.7508   13.0139 H         1 UNK         0.0000 
    854 H(3)       17.3748    8.2558    9.0359 H         1 UNK         0.0000 
    855 H(4)       19.2925    6.7236    8.7569 H         1 UNK         0.0000 
    856 H(5)       15.5954    8.8278   10.4237 H         1 UNK         0.0000 
    857 H(6)       20.5011    4.9580    9.5049 H         1 UNK         0.0000 
    858 H(7)       21.9549    2.6188   10.8722 H         1 UNK         0.0000 
    859 H(8)       22.3251    3.8565    9.7355 H         1 UNK         0.0000 
    860 H(9)       23.0539    3.8137   11.3277 H         1 UNK         0.0000 
    861 O(1)       27.0210    3.8867   12.4697 O.3       1 UNK         0.0000 
    862 O(2)       22.0471   -0.0578   11.1429 O.2       1 UNK         0.0000 
    863 N(1)       22.6982    0.4665   13.2546 N.am      1 UNK         0.0000 
    864 C(1)       23.8055    1.3064   13.0005 C.ar      1 UNK         0.0000 
    865 C(2)       24.5283    1.3083   11.8077 C.ar      1 UNK         0.0000 
    866 C(3)       25.6060    2.1750   11.6511 C.ar      1 UNK         0.0000 
    867 C(4)       25.9763    3.0372   12.6800 C.ar      1 UNK         0.0000 
    868 C(5)       25.2729    3.0135   13.8837 C.ar      1 UNK         0.0000 
    869 C(6)       24.1951    2.1535   14.0386 C.ar      1 UNK         0.0000 
    870 C(7)       21.8908   -0.1357   12.3664 C.2       1 UNK         0.0000 
    871 C(8)       20.7674   -0.9372   12.9673 C.3       1 UNK         0.0000 
    872 H(1)       24.2499    0.6455   10.9978 H         1 UNK         0.0000 
    873 H(2)       26.1528    2.1643   10.7162 H         1 UNK         0.0000 
    874 H(3)       25.5659    3.6693   14.6943 H         1 UNK         0.0000 
    875 H(4)       23.6482    2.1371   14.9733 H         1 UNK         0.0000 
    876 H(5)       27.3454    4.2413   13.3065 H         1 UNK         0.0000 
    877 H(6)       22.4397    0.3715   14.2253 H         1 UNK         0.0000 
    878 H(7)       20.9858   -1.9677   12.8580 H         1 UNK         0.0000 
    879 H(8)       20.6156   -0.7300   13.9947 H         1 UNK         0.0000 
    880 H(9)       19.8868   -0.7728   12.4025 H         1 UNK         0.0000 
    881 O(1)       22.6931    0.6998    1.7534 O.3       1 UNK         0.0000 
    882 O(2)       17.7192    4.6443    0.4267 O.2       1 UNK         0.0000 
    883 N(1)       18.3702    4.1200    2.5384 N.am      1 UNK         0.0000 
    884 C(1)       19.4775    3.2801    2.2843 C.ar      1 UNK         0.0000 
    885 C(2)       20.2004    3.2782    1.0915 C.ar      1 UNK         0.0000 
    886 C(3)       21.2780    2.4115    0.9348 C.ar      1 UNK         0.0000 
    887 C(4)       21.6483    1.5493    1.9637 C.ar      1 UNK         0.0000 
    888 C(5)       20.9450    1.5730    3.1674 C.ar      1 UNK         0.0000 
    889 C(6)       19.8672    2.4330    3.3223 C.ar      1 UNK         0.0000 
    890 C(7)       17.5629    4.7222    1.6501 C.2       1 UNK         0.0000 
    891 C(8)       16.4394    5.5237    2.2511 C.3       1 UNK         0.0000 
    892 H(1)       19.9219    3.9410    0.2815 H         1 UNK         0.0000 
    893 H(2)       21.8248    2.4222    0.0000 H         1 UNK         0.0000 
    894 H(3)       21.2379    0.9172    3.9780 H         1 UNK         0.0000 
    895 H(4)       19.3203    2.4494    4.2570 H         1 UNK         0.0000 
    896 H(5)       23.0174    0.3452    2.5902 H         1 UNK         0.0000 
    897 H(6)       18.1117    4.2150    3.5091 H         1 UNK         0.0000 
    898 H(7)       16.6579    6.5542    2.1418 H         1 UNK         0.0000 
    899 H(8)       16.2876    5.3165    3.2785 H         1 UNK         0.0000 
    900 H(9)       15.5589    5.3593    1.6863 H         1 UNK         0.0000 
    901 O(1)        9.6464   -3.8867    7.7556 O.3       1 UNK         0.0000 
    902 O(2)       14.6203    0.0578    9.0824 O.2       1 UNK         0.0000 
    903 N(1)       13.9692   -0.4665    6.9707 N.am      1 UNK         0.0000 
    904 C(1)       12.8619   -1.3064    7.2247 C.ar      1 UNK         0.0000 
    905 C(2)       12.1391   -1.3083    8.4175 C.ar      1 UNK         0.0000 
    906 C(3)       11.0614   -2.1750    8.5742 C.ar      1 UNK         0.0000 
    907 C(4)       10.6911   -3.0372    7.5453 C.ar      1 UNK         0.0000 
    908 C(5)       11.3944   -3.0135    6.3416 C.ar      1 UNK         0.0000 
    909 C(6)       12.4723   -2.1535    6.1867 C.ar      1 UNK         0.0000 
    910 C(7)       14.7766    0.1357    7.8589 C.2       1 UNK         0.0000 
    911 C(8)       15.9000    0.9372    7.2579 C.3       1 UNK         0.0000 
    912 H(1)       12.4175   -0.6455    9.2275 H         1 UNK         0.0000 
    913 H(2)       10.5146   -2.1643    9.5090 H         1 UNK         0.0000 
    914 H(3)       11.1015   -3.6693    5.5310 H         1 UNK         0.0000 
    915 H(4)       13.0192   -2.1371    5.2520 H         1 UNK         0.0000 
    916 H(5)        9.3220   -4.2413    6.9188 H         1 UNK         0.0000 
    917 H(6)       14.2277   -0.3715    5.9999 H         1 UNK         0.0000 
    918 H(7)       15.6816    1.9677    7.3672 H         1 UNK         0.0000 
    919 H(8)       16.0518    0.7300    6.2305 H         1 UNK         0.0000 
    920 H(9)       16.7806    0.7728    7.8227 H         1 UNK         0.0000 
    921 O(1)       16.8924   -0.6998   18.2703 O.3       1 UNK         0.0000 
    922 O(2)       21.8663   -4.6443   19.5971 O.2       1 UNK         0.0000 
    923 N(1)       21.2153   -4.1200   17.4854 N.am      1 UNK         0.0000 
    924 C(1)       20.1079   -3.2801   17.7395 C.ar      1 UNK         0.0000 
    925 C(2)       19.3851   -3.2782   18.9323 C.ar      1 UNK         0.0000 
    926 C(3)       18.3074   -2.4115   19.0889 C.ar      1 UNK         0.0000 
    927 C(4)       17.9371   -1.5493   18.0600 C.ar      1 UNK         0.0000 
    928 C(5)       18.6405   -1.5730   16.8563 C.ar      1 UNK         0.0000 
    929 C(6)       19.7183   -2.4330   16.7014 C.ar      1 UNK         0.0000 
    930 C(7)       22.0226   -4.7222   18.3737 C.2       1 UNK         0.0000 
    931 C(8)       23.1461   -5.5237   17.7727 C.3       1 UNK         0.0000 
    932 H(1)       19.6636   -3.9410   19.7422 H         1 UNK         0.0000 
    933 H(2)       17.7607   -2.4222   20.0238 H         1 UNK         0.0000 
    934 H(3)       18.3475   -0.9172   16.0457 H         1 UNK         0.0000 
    935 H(4)       20.2652   -2.4494   15.7668 H         1 UNK         0.0000 
    936 H(5)       16.5681   -0.3452   17.4335 H         1 UNK         0.0000 
    937 H(6)       21.4738   -4.2150   16.5147 H         1 UNK         0.0000 
    938 H(7)       22.9276   -6.5542   17.8820 H         1 UNK         0.0000 
    939 H(8)       23.2978   -5.3165   16.7453 H         1 UNK         0.0000 
    940 H(9)       24.0266   -5.3593   18.3375 H         1 UNK         0.0000 
    941 O(1)       16.4197    3.8867   19.4795 O.3       1 UNK         0.0000 
    942 O(2)       11.4458   -0.0578   18.1527 O.2       1 UNK         0.0000 
    943 N(1)       12.0969    0.4665   20.2644 N.am      1 UNK         0.0000 
    944 C(1)       13.2042    1.3064   20.0104 C.ar      1 UNK         0.0000 
    945 C(2)       13.9270    1.3083   18.8176 C.ar      1 UNK         0.0000 
    946 C(3)       15.0047    2.1750   18.6609 C.ar      1 UNK         0.0000 
    947 C(4)       15.3750    3.0372   19.6898 C.ar      1 UNK         0.0000 
    948 C(5)       14.6716    3.0135   20.8935 C.ar      1 UNK         0.0000 
    949 C(6)       13.5938    2.1535   21.0484 C.ar      1 UNK         0.0000 
    950 C(7)       11.2895   -0.1357   19.3762 C.2       1 UNK         0.0000 
    951 C(8)       10.1661   -0.9372   19.9772 C.3       1 UNK         0.0000 
    952 H(1)       13.6486    0.6455   18.0076 H         1 UNK         0.0000 
    953 H(2)       15.5514    2.1643   17.7261 H         1 UNK         0.0000 
    954 H(3)       14.9646    3.6693   21.7041 H         1 UNK         0.0000 
    955 H(4)       13.0469    2.1371   21.9831 H         1 UNK         0.0000 
    956 H(5)       16.7441    4.2413   20.3163 H         1 UNK         0.0000 
    957 H(6)       11.8384    0.3715   21.2352 H         1 UNK         0.0000 
    958 H(7)       10.3845   -1.9677   19.8678 H         1 UNK         0.0000 
    959 H(8)       10.0143   -0.7300   21.0046 H         1 UNK         0.0000 
    960 H(9)        9.2855   -0.7728   19.4124 H         1 UNK         0.0000 
    961 O(1)       20.7477    9.8728    8.9648 O.3       1 UNK         0.0000 
    962 O(2)       15.7738   13.8173    7.6380 O.2       1 UNK         0.0000 
    963 N(1)       16.4248   13.2930    9.7497 N.am      1 UNK         0.0000 
    964 C(1)       17.5321   12.4531    9.4956 C.ar      1 UNK         0.0000 
    965 C(2)       18.2550   12.4512    8.3028 C.ar      1 UNK         0.0000 
    966 C(3)       19.3326   11.5845    8.1462 C.ar      1 UNK         0.0000 
    967 C(4)       19.7030   10.7223    9.1751 C.ar      1 UNK         0.0000 
    968 C(5)       18.9996   10.7460   10.3788 C.ar      1 UNK         0.0000 
    969 C(6)       17.9218   11.6060   10.5337 C.ar      1 UNK         0.0000 
    970 C(7)       15.6175   13.8952    8.8614 C.2       1 UNK         0.0000 
    971 C(8)       14.4940   14.6967    9.4624 C.3       1 UNK         0.0000 
    972 H(1)       17.9765   13.1140    7.4929 H         1 UNK         0.0000 
    973 H(2)       19.8794   11.5952    7.2113 H         1 UNK         0.0000 
    974 H(3)       19.2926   10.0902   11.1894 H         1 UNK         0.0000 
    975 H(4)       17.3749   11.6224   11.4683 H         1 UNK         0.0000 
    976 H(5)       21.0720    9.5182    9.8016 H         1 UNK         0.0000 
    977 H(6)       16.1663   13.3880   10.7204 H         1 UNK         0.0000 
    978 H(7)       14.7125   15.7272    9.3531 H         1 UNK         0.0000 
    979 H(8)       14.3423   14.4895   10.4898 H         1 UNK         0.0000 
    980 H(9)       13.6135   14.5323    8.8976 H         1 UNK         0.0000 
    981 O(1)       10.6191    5.2863   14.7654 O.3       1 UNK         0.0000 
    982 O(2)       15.5930    9.2308   16.0922 O.2       1 UNK         0.0000 
    983 N(1)       14.9419    8.7065   13.9805 N.am      1 UNK         0.0000 
    984 C(1)       13.8346    7.8666   14.2346 C.ar      1 UNK         0.0000 
    985 C(2)       13.1118    7.8647   15.4274 C.ar      1 UNK         0.0000 
    986 C(3)       12.0341    6.9980   15.5840 C.ar      1 UNK         0.0000 
    987 C(4)       11.6638    6.1358   14.5551 C.ar      1 UNK         0.0000 
    988 C(5)       12.3671    6.1595   13.3514 C.ar      1 UNK         0.0000 
    989 C(6)       13.4450    7.0195   13.1965 C.ar      1 UNK         0.0000 
    990 C(7)       15.7493    9.3087   14.8687 C.2       1 UNK         0.0000 
    991 C(8)       16.8727   10.1102   14.2678 C.3       1 UNK         0.0000 
    992 H(1)       13.3902    8.5275   16.2373 H         1 UNK         0.0000 
    993 H(2)       11.4873    7.0087   16.5188 H         1 UNK         0.0000 
    994 H(3)       12.0742    5.5037   12.5408 H         1 UNK         0.0000 
    995 H(4)       13.9919    7.0359   12.2618 H         1 UNK         0.0000 
    996 H(5)       10.2947    4.9317   13.9286 H         1 UNK         0.0000 
    997 H(6)       15.2004    8.8015   13.0098 H         1 UNK         0.0000 
    998 H(7)       16.6543   11.1407   14.3771 H         1 UNK         0.0000 
    999 H(8)       17.0245    9.9030   13.2404 H         1 UNK         0.0000 
   1000 H(9)       17.7532    9.9458   14.8326 H         1 UNK         0.0000 
   1001 O(1)       14.9470   17.6462    4.2507 O.3       1 UNK         0.0000 
   1002 O(2)       19.9209   13.7017    5.5774 O.2       1 UNK         0.0000 
   1003 N(1)       19.2699   14.2260    3.4657 N.am      1 UNK         0.0000 
   1004 C(1)       18.1625   15.0659    3.7198 C.ar      1 UNK         0.0000 
   1005 C(2)       17.4397   15.0678    4.9126 C.ar      1 UNK         0.0000 
   1006 C(3)       16.3620   15.9345    5.0693 C.ar      1 UNK         0.0000 
   1007 C(4)       15.9917   16.7967    4.0404 C.ar      1 UNK         0.0000 
   1008 C(5)       16.6951   16.7730    2.8367 C.ar      1 UNK         0.0000 
   1009 C(6)       17.7729   15.9130    2.6817 C.ar      1 UNK         0.0000 
   1010 C(7)       20.0772   13.6238    4.3540 C.2       1 UNK         0.0000 
   1011 C(8)       21.2007   12.8223    3.7530 C.3       1 UNK         0.0000 
   1012 H(1)       17.7182   14.4050    5.7226 H         1 UNK         0.0000 
   1013 H(2)       15.8153   15.9238    6.0041 H         1 UNK         0.0000 
   1014 H(3)       16.4021   17.4288    2.0261 H         1 UNK         0.0000 
   1015 H(4)       18.3198   15.8966    1.7471 H         1 UNK         0.0000 
   1016 H(5)       14.6227   18.0008    3.4139 H         1 UNK         0.0000 
   1017 H(6)       19.5284   14.1310    2.4950 H         1 UNK         0.0000 
   1018 H(7)       20.9822   11.7918    3.8623 H         1 UNK         0.0000 
   1019 H(8)       21.3524   13.0295    2.7256 H         1 UNK         0.0000 
   1020 H(9)       22.0812   12.9867    4.3178 H         1 UNK         0.0000 
   1021 O(1)       14.4743   13.0597    5.4598 O.3       1 UNK         0.0000 
   1022 O(2)        9.5004    9.1152    4.1331 O.2       1 UNK         0.0000 
   1023 N(1)       10.1515    9.6395    6.2448 N.am      1 UNK         0.0000 
   1024 C(1)       11.2588   10.4794    5.9907 C.ar      1 UNK         0.0000 
   1025 C(2)       11.9816   10.4813    4.7979 C.ar      1 UNK         0.0000 
   1026 C(3)       13.0593   11.3480    4.6412 C.ar      1 UNK         0.0000 
   1027 C(4)       13.4296   12.2102    5.6701 C.ar      1 UNK         0.0000 
   1028 C(5)       12.7263   12.1865    6.8738 C.ar      1 UNK         0.0000 
   1029 C(6)       11.6484   11.3265    7.0288 C.ar      1 UNK         0.0000 
   1030 C(7)        9.3441    9.0373    5.3565 C.2       1 UNK         0.0000 
   1031 C(8)        8.2207    8.2358    5.9575 C.3       1 UNK         0.0000 
   1032 H(1)       11.7032    9.8185    3.9879 H         1 UNK         0.0000 
   1033 H(2)       13.6061   11.3373    3.7064 H         1 UNK         0.0000 
   1034 H(3)       13.0192   12.8423    7.6844 H         1 UNK         0.0000 
   1035 H(4)       11.1015   11.3101    7.9634 H         1 UNK         0.0000 
   1036 H(5)       14.7987   13.4143    6.2966 H         1 UNK         0.0000 
   1037 H(6)        9.8930    9.5445    7.2155 H         1 UNK         0.0000 
   1038 H(7)        8.4391    7.2053    5.8482 H         1 UNK         0.0000 
   1039 H(8)        8.0689    8.4430    6.9849 H         1 UNK         0.0000 
   1040 H(9)        7.3401    8.4002    5.3927 H         1 UNK         0.0000 
   1041 O(1)       21.7204    9.8728   15.9746 O.3       1 UNK         0.0000 
   1042 O(2)       16.7465   13.8173   14.6478 O.2       1 UNK         0.0000 
   1043 N(1)       17.3975   13.2930   16.7595 N.am      1 UNK         0.0000 
   1044 C(1)       18.5048   12.4531   16.5055 C.ar      1 UNK         0.0000 
   1045 C(2)       19.2277   12.4512   15.3126 C.ar      1 UNK         0.0000 
   1046 C(3)       20.3053   11.5845   15.1560 C.ar      1 UNK         0.0000 
   1047 C(4)       20.6756   10.7223   16.1849 C.ar      1 UNK         0.0000 
   1048 C(5)       19.9723   10.7460   17.3886 C.ar      1 UNK         0.0000 
   1049 C(6)       18.8945   11.6060   17.5435 C.ar      1 UNK         0.0000 
   1050 C(7)       16.5902   13.8952   15.8713 C.2       1 UNK         0.0000 
   1051 C(8)       15.4667   14.6967   16.4723 C.3       1 UNK         0.0000 
   1052 H(1)       18.9492   13.1140   14.5027 H         1 UNK         0.0000 
   1053 H(2)       20.8521   11.5952   14.2212 H         1 UNK         0.0000 
   1054 H(3)       20.2653   10.0902   18.1992 H         1 UNK         0.0000 
   1055 H(4)       18.3476   11.6224   18.4782 H         1 UNK         0.0000 
   1056 H(5)       22.0447    9.5182   16.8114 H         1 UNK         0.0000 
   1057 H(6)       17.1390   13.3880   17.7302 H         1 UNK         0.0000 
   1058 H(7)       15.6852   15.7272   16.3629 H         1 UNK         0.0000 
   1059 H(8)       15.3149   14.4895   17.4996 H         1 UNK         0.0000 
   1060 H(9)       14.5862   14.5323   15.9074 H         1 UNK         0.0000 
   1061 O(1)       23.1658    5.2863   21.7753 O.3       1 UNK         0.0000 
   1062 O(2)       28.1396    9.2308   23.1020 O.2       1 UNK         0.0000 
   1063 N(1)       27.4886    8.7065   20.9903 N.am      1 UNK         0.0000 
   1064 C(1)       26.3813    7.8666   21.2444 C.ar      1 UNK         0.0000 
   1065 C(2)       25.6585    7.8647   22.4372 C.ar      1 UNK         0.0000 
   1066 C(3)       24.5808    6.9980   22.5939 C.ar      1 UNK         0.0000 
   1067 C(4)       24.2105    6.1358   21.5650 C.ar      1 UNK         0.0000 
   1068 C(5)       24.9138    6.1595   20.3613 C.ar      1 UNK         0.0000 
   1069 C(6)       25.9916    7.0195   20.2063 C.ar      1 UNK         0.0000 
   1070 C(7)       28.2960    9.3087   21.8786 C.2       1 UNK         0.0000 
   1071 C(8)       29.4194   10.1102   21.2776 C.3       1 UNK         0.0000 
   1072 H(1)       25.9369    8.5275   23.2472 H         1 UNK         0.0000 
   1073 H(2)       24.0340    7.0087   23.5287 H         1 UNK         0.0000 
   1074 H(3)       24.6209    5.5037   19.5507 H         1 UNK         0.0000 
   1075 H(4)       26.5386    7.0359   19.2717 H         1 UNK         0.0000 
   1076 H(5)       22.8414    4.9317   20.9385 H         1 UNK         0.0000 
   1077 H(6)       27.7471    8.8015   20.0196 H         1 UNK         0.0000 
   1078 H(7)       29.2010   11.1407   21.3869 H         1 UNK         0.0000 
   1079 H(8)       29.5712    9.9030   20.2502 H         1 UNK         0.0000 
   1080 H(9)       30.2999    9.9458   21.8424 H         1 UNK         0.0000 
   1081 O(1)       15.9197   17.6462   11.2605 O.3       1 UNK         0.0000 
   1082 O(2)       20.8936   13.7017   12.5873 O.2       1 UNK         0.0000 
   1083 N(1)       20.2426   14.2260   10.4756 N.am      1 UNK         0.0000 
   1084 C(1)       19.1352   15.0659   10.7296 C.ar      1 UNK         0.0000 
   1085 C(2)       18.4124   15.0678   11.9225 C.ar      1 UNK         0.0000 
   1086 C(3)       17.3347   15.9345   12.0791 C.ar      1 UNK         0.0000 
   1087 C(4)       16.9644   16.7967   11.0502 C.ar      1 UNK         0.0000 
   1088 C(5)       17.6678   16.7730    9.8465 C.ar      1 UNK         0.0000 
   1089 C(6)       18.7456   15.9130    9.6916 C.ar      1 UNK         0.0000 
   1090 C(7)       21.0499   13.6238   11.3638 C.2       1 UNK         0.0000 
   1091 C(8)       22.1734   12.8223   10.7628 C.3       1 UNK         0.0000 
   1092 H(1)       18.6909   14.4050   12.7324 H         1 UNK         0.0000 
   1093 H(2)       16.7880   15.9238   13.0139 H         1 UNK         0.0000 
   1094 H(3)       17.3748   17.4288    9.0359 H         1 UNK         0.0000 
   1095 H(4)       19.2925   15.8966    8.7569 H         1 UNK         0.0000 
   1096 H(5)       15.5954   18.0008   10.4237 H         1 UNK         0.0000 
   1097 H(6)       20.5011   14.1310    9.5049 H         1 UNK         0.0000 
   1098 H(7)       21.9549   11.7918   10.8722 H         1 UNK         0.0000 
   1099 H(8)       22.3251   13.0295    9.7355 H         1 UNK         0.0000 
   1100 H(9)       23.0539   12.9867   11.3277 H         1 UNK         0.0000 
   1101 O(1)       27.0210   13.0597   12.4697 O.3       1 UNK         0.0000 
   1102 O(2)       22.0471    9.1152   11.1429 O.2       1 UNK         0.0000 
   1103 N(1)       22.6982    9.6395   13.2546 N.am      1 UNK         0.0000 
   1104 C(1)       23.8055   10.4794   13.0005 C.ar      1 UNK         0.0000 
   1105 C(2)       24.5283   10.4813   11.8077 C.ar      1 UNK         0.0000 
   1106 C(3)       25.6060   11.3480   11.6511 C.ar      1 UNK         0.0000 
   1107 C(4)       25.9763   12.2102   12.6800 C.ar      1 UNK         0.0000 
   1108 C(5)       25.2729   12.1865   13.8837 C.ar      1 UNK         0.0000 
   1109 C(6)       24.1951   11.3265   14.0386 C.ar      1 UNK         0.0000 
   1110 C(7)       21.8908    9.0373   12.3664 C.2       1 UNK         0.0000 
   1111 C(8)       20.7674    8.2358   12.9673 C.3       1 UNK         0.0000 
   1112 H(1)       24.2499    9.8185   10.9978 H         1 UNK         0.0000 
   1113 H(2)       26.1528   11.3373   10.7162 H         1 UNK         0.0000 
   1114 H(3)       25.5659   12.8423   14.6943 H         1 UNK         0.0000 
   1115 H(4)       23.6482   11.3101   14.9733 H         1 UNK         0.0000 
   1116 H(5)       27.3454   13.4143   13.3065 H         1 UNK         0.0000 
   1117 H(6)       22.4397    9.5445   14.2253 H         1 UNK         0.0000 
   1118 H(7)       20.9858    7.2053   12.8580 H         1 UNK         0.0000 
   1119 H(8)       20.6156    8.4430   13.9947 H         1 UNK         0.0000 
   1120 H(9)       19.8868    8.4002   12.4025 H         1 UNK         0.0000 
   1121 O(1)       22.6931    9.8728    1.7534 O.3       1 UNK         0.0000 
   1122 O(2)       17.7192   13.8173    0.4267 O.2       1 UNK         0.0000 
   1123 N(1)       18.3702   13.2930    2.5384 N.am      1 UNK         0.0000 
   1124 C(1)       19.4775   12.4531    2.2843 C.ar      1 UNK         0.0000 
   1125 C(2)       20.2004   12.4512    1.0915 C.ar      1 UNK         0.0000 
   1126 C(3)       21.2780   11.5845    0.9348 C.ar      1 UNK         0.0000 
   1127 C(4)       21.6483   10.7223    1.9637 C.ar      1 UNK         0.0000 
   1128 C(5)       20.9450   10.7460    3.1674 C.ar      1 UNK         0.0000 
   1129 C(6)       19.8672   11.6060    3.3223 C.ar      1 UNK         0.0000 
   1130 C(7)       17.5629   13.8952    1.6501 C.2       1 UNK         0.0000 
   1131 C(8)       16.4394   14.6967    2.2511 C.3       1 UNK         0.0000 
   1132 H(1)       19.9219   13.1140    0.2815 H         1 UNK         0.0000 
   1133 H(2)       21.8248   11.5952    0.0000 H         1 UNK         0.0000 
   1134 H(3)       21.2379   10.0902    3.9780 H         1 UNK         0.0000 
   1135 H(4)       19.3203   11.6224    4.2570 H         1 UNK         0.0000 
   1136 H(5)       23.0174    9.5182    2.5902 H         1 UNK         0.0000 
   1137 H(6)       18.1117   13.3880    3.5091 H         1 UNK         0.0000 
   1138 H(7)       16.6579   15.7272    2.1418 H         1 UNK         0.0000 
   1139 H(8)       16.2876   14.4895    3.2785 H         1 UNK         0.0000 
   1140 H(9)       15.5589   14.5323    1.6863 H         1 UNK         0.0000 
   1141 O(1)        9.6464    5.2863    7.7556 O.3       1 UNK         0.0000 
   1142 O(2)       14.6203    9.2308    9.0824 O.2       1 UNK         0.0000 
   1143 N(1)       13.9692    8.7065    6.9707 N.am      1 UNK         0.0000 
   1144 C(1)       12.8619    7.8666    7.2247 C.ar      1 UNK         0.0000 
   1145 C(2)       12.1391    7.8647    8.4175 C.ar      1 UNK         0.0000 
   1146 C(3)       11.0614    6.9980    8.5742 C.ar      1 UNK         0.0000 
   1147 C(4)       10.6911    6.1358    7.5453 C.ar      1 UNK         0.0000 
   1148 C(5)       11.3944    6.1595    6.3416 C.ar      1 UNK         0.0000 
   1149 C(6)       12.4723    7.0195    6.1867 C.ar      1 UNK         0.0000 
   1150 C(7)       14.7766    9.3087    7.8589 C.2       1 UNK         0.0000 
   1151 C(8)       15.9000   10.1102    7.2579 C.3       1 UNK         0.0000 
   1152 H(1)       12.4175    8.5275    9.2275 H         1 UNK         0.0000 
   1153 H(2)       10.5146    7.0087    9.5090 H         1 UNK         0.0000 
   1154 H(3)       11.1015    5.5037    5.5310 H         1 UNK         0.0000 
   1155 H(4)       13.0192    7.0359    5.2520 H         1 UNK         0.0000 
   1156 H(5)        9.3220    4.9317    6.9188 H         1 UNK         0.0000 
   1157 H(6)       14.2277    8.8015    5.9999 H         1 UNK         0.0000 
   1158 H(7)       15.6816   11.1407    7.3672 H         1 UNK         0.0000 
   1159 H(8)       16.0518    9.9030    6.2305 H         1 UNK         0.0000 
   1160 H(9)       16.7806    9.9458    7.8227 H         1 UNK         0.0000 
   1161 O(1)       16.8924    8.4732   18.2703 O.3       1 UNK         0.0000 
   1162 O(2)       21.8663    4.5287   19.5971 O.2       1 UNK         0.0000 
   1163 N(1)       21.2153    5.0530   17.4854 N.am      1 UNK         0.0000 
   1164 C(1)       20.1079    5.8929   17.7395 C.ar      1 UNK         0.0000 
   1165 C(2)       19.3851    5.8948   18.9323 C.ar      1 UNK         0.0000 
   1166 C(3)       18.3074    6.7615   19.0889 C.ar      1 UNK         0.0000 
   1167 C(4)       17.9371    7.6237   18.0600 C.ar      1 UNK         0.0000 
   1168 C(5)       18.6405    7.6000   16.8563 C.ar      1 UNK         0.0000 
   1169 C(6)       19.7183    6.7400   16.7014 C.ar      1 UNK         0.0000 
   1170 C(7)       22.0226    4.4508   18.3737 C.2       1 UNK         0.0000 
   1171 C(8)       23.1461    3.6493   17.7727 C.3       1 UNK         0.0000 
   1172 H(1)       19.6636    5.2320   19.7422 H         1 UNK         0.0000 
   1173 H(2)       17.7607    6.7508   20.0238 H         1 UNK         0.0000 
   1174 H(3)       18.3475    8.2558   16.0457 H         1 UNK         0.0000 
   1175 H(4)       20.2652    6.7236   15.7668 H         1 UNK         0.0000 
   1176 H(5)       16.5681    8.8278   17.4335 H         1 UNK         0.0000 
   1177 H(6)       21.4738    4.9580   16.5147 H         1 UNK         0.0000 
   1178 H(7)       22.9276    2.6188   17.8820 H         1 UNK         0.0000 
   1179 H(8)       23.2978    3.8565   16.7453 H         1 UNK         0.0000 
   1180 H(9)       24.0266    3.8137   18.3375 H         1 UNK         0.0000 
   1181 O(1)       16.4197   13.0597   19.4795 O.3       1 UNK         0.0000 
   1182 O(2)       11.4458    9.1152   18.1527 O.2       1 UNK         0.0000 
   1183 N(1)       12.0969    9.6395   20.2644 N.am      1 UNK         0.0000 
   1184 C(1)       13.2042   10.4794   20.0104 C.ar      1 UNK         0.0000 
   1185 C(2)       13.9270   10.4813   18.8176 C.ar      1 UNK         0.0000 
   1186 C(3)       15.0047   11.3480   18.6609 C.ar      1 UNK         0.0000 
   1187 C(4)       15.3750   12.2102   19.6898 C.ar      1 UNK         0.0000 
   1188 C(5)       14.6716   12.1865   20.8935 C.ar      1 UNK         0.0000 
   1189 C(6)       13.5938   11.3265   21.0484 C.ar      1 UNK         0.0000 
   1190 C(7)       11.2895    9.0373   19.3762 C.2       1 UNK         0.0000 
   1191 C(8)       10.1661    8.2358   19.9772 C.3       1 UNK         0.0000 
   1192 H(1)       13.6486    9.8185   18.0076 H         1 UNK         0.0000 
   1193 H(2)       15.5514   11.3373   17.7261 H         1 UNK         0.0000 
   1194 H(3)       14.9646   12.8423   21.7041 H         1 UNK         0.0000 
   1195 H(4)       13.0469   11.3101   21.9831 H         1 UNK         0.0000 
   1196 H(5)       16.7441   13.4143   20.3163 H         1 UNK         0.0000 
   1197 H(6)       11.8384    9.5445   21.2352 H         1 UNK         0.0000 
   1198 H(7)       10.3845    7.2053   19.8678 H         1 UNK         0.0000 
   1199 H(8)       10.0143    8.4430   21.0046 H         1 UNK         0.0000 
   1200 H(9)        9.2855    8.4002   19.4124 H         1 UNK         0.0000 
   1201 O(1)       20.7477   19.0458    8.9648 O.3       1 UNK         0.0000 
   1202 O(2)       15.7738   22.9903    7.6380 O.2       1 UNK         0.0000 
   1203 N(1)       16.4248   22.4660    9.7497 N.am      1 UNK         0.0000 
   1204 C(1)       17.5321   21.6261    9.4956 C.ar      1 UNK         0.0000 
   1205 C(2)       18.2550   21.6242    8.3028 C.ar      1 UNK         0.0000 
   1206 C(3)       19.3326   20.7575    8.1462 C.ar      1 UNK         0.0000 
   1207 C(4)       19.7030   19.8953    9.1751 C.ar      1 UNK         0.0000 
   1208 C(5)       18.9996   19.9190   10.3788 C.ar      1 UNK         0.0000 
   1209 C(6)       17.9218   20.7790   10.5337 C.ar      1 UNK         0.0000 
   1210 C(7)       15.6175   23.0682    8.8614 C.2       1 UNK         0.0000 
   1211 C(8)       14.4940   23.8697    9.4624 C.3       1 UNK         0.0000 
   1212 H(1)       17.9765   22.2870    7.4929 H         1 UNK         0.0000 
   1213 H(2)       19.8794   20.7682    7.2113 H         1 UNK         0.0000 
   1214 H(3)       19.2926   19.2632   11.1894 H         1 UNK         0.0000 
   1215 H(4)       17.3749   20.7954   11.4683 H         1 UNK         0.0000 
   1216 H(5)       21.0720   18.6912    9.8016 H         1 UNK         0.0000 
   1217 H(6)       16.1663   22.5611   10.7204 H         1 UNK         0.0000 
   1218 H(7)       14.7125   24.9002    9.3531 H         1 UNK         0.0000 
   1219 H(8)       14.3423   23.6625   10.4898 H         1 UNK         0.0000 
   1220 H(9)       13.6135   23.7053    8.8976 H         1 UNK         0.0000 
   1221 O(1)       10.6191   14.4593   14.7654 O.3       1 UNK         0.0000 
   1222 O(2)       15.5930   18.4038   16.0922 O.2       1 UNK         0.0000 
   1223 N(1)       14.9419   17.8795   13.9805 N.am      1 UNK         0.0000 
   1224 C(1)       13.8346   17.0396   14.2346 C.ar      1 UNK         0.0000 
   1225 C(2)       13.1118   17.0377   15.4274 C.ar      1 UNK         0.0000 
   1226 C(3)       12.0341   16.1710   15.5840 C.ar      1 UNK         0.0000 
   1227 C(4)       11.6638   15.3088   14.5551 C.ar      1 UNK         0.0000 
   1228 C(5)       12.3671   15.3325   13.3514 C.ar      1 UNK         0.0000 
   1229 C(6)       13.4450   16.1925   13.1965 C.ar      1 UNK         0.0000 
   1230 C(7)       15.7493   18.4817   14.8687 C.2       1 UNK         0.0000 
   1231 C(8)       16.8727   19.2832   14.2678 C.3       1 UNK         0.0000 
   1232 H(1)       13.3902   17.7005   16.2373 H         1 UNK         0.0000 
   1233 H(2)       11.4873   16.1817   16.5188 H         1 UNK         0.0000 
   1234 H(3)       12.0742   14.6767   12.5408 H         1 UNK         0.0000 
   1235 H(4)       13.9919   16.2089   12.2618 H         1 UNK         0.0000 
   1236 H(5)       10.2947   14.1047   13.9286 H         1 UNK         0.0000 
   1237 H(6)       15.2004   17.9746   13.0098 H         1 UNK         0.0000 
   1238 H(7)       16.6543   20.3137   14.3771 H         1 UNK         0.0000 
   1239 H(8)       17.0245   19.0760   13.2404 H         1 UNK         0.0000 
   1240 H(9)       17.7532   19.1188   14.8326 H         1 UNK         0.0000 
   1241 O(1)       14.9470   26.8192    4.2507 O.3       1 UNK         0.0000 
   1242 O(2)       19.9209   22.8747    5.5774 O.2       1 UNK         0.0000 
   1243 N(1)       19.2699   23.3990    3.4657 N.am      1 UNK         0.0000 
   1244 C(1)       18.1625   24.2389    3.7198 C.ar      1 UNK         0.0000 
   1245 C(2)       17.4397   24.2408    4.9126 C.ar      1 UNK         0.0000 
   1246 C(3)       16.3620   25.1075    5.0693 C.ar      1 UNK         0.0000 
   1247 C(4)       15.9917   25.9697    4.0404 C.ar      1 UNK         0.0000 
   1248 C(5)       16.6951   25.9460    2.8367 C.ar      1 UNK         0.0000 
   1249 C(6)       17.7729   25.0860    2.6817 C.ar      1 UNK         0.0000 
   1250 C(7)       20.0772   22.7968    4.3540 C.2       1 UNK         0.0000 
   1251 C(8)       21.2007   21.9953    3.7530 C.3       1 UNK         0.0000 
   1252 H(1)       17.7182   23.5780    5.7226 H         1 UNK         0.0000 
   1253 H(2)       15.8153   25.0968    6.0041 H         1 UNK         0.0000 
   1254 H(3)       16.4021   26.6018    2.0261 H         1 UNK         0.0000 
   1255 H(4)       18.3198   25.0696    1.7471 H         1 UNK         0.0000 
   1256 H(5)       14.6227   27.1738    3.4139 H         1 UNK         0.0000 
   1257 H(6)       19.5284   23.3040    2.4950 H         1 UNK         0.0000 
   1258 H(7)       20.9822   20.9648    3.8623 H         1 UNK         0.0000 
   1259 H(8)       21.3524   22.2025    2.7256 H         1 UNK         0.0000 
   1260 H(9)       22.0812   22.1597    4.3178 H         1 UNK         0.0000 
   1261 O(1)       14.4743   22.2327    5.4598 O.3       1 UNK         0.0000 
   1262 O(2)        9.5004   18.2882    4.1331 O.2       1 UNK         0.0000 
   1263 N(1)       10.1515   18.8125    6.2448 N.am      1 UNK         0.0000 
   1264 C(1)       11.2588   19.6524    5.9907 C.ar      1 UNK         0.0000 
   1265 C(2)       11.9816   19.6543    4.7979 C.ar      1 UNK         0.0000 
   1266 C(3)       13.0593   20.5210    4.6412 C.ar      1 UNK         0.0000 
   1267 C(4)       13.4296   21.3832    5.6701 C.ar      1 UNK         0.0000 
   1268 C(5)       12.7263   21.3595    6.8738 C.ar      1 UNK         0.0000 
   1269 C(6)       11.6484   20.4995    7.0288 C.ar      1 UNK         0.0000 
   1270 C(7)        9.3441   18.2103    5.3565 C.2       1 UNK         0.0000 
   1271 C(8)        8.2207   17.4088    5.9575 C.3       1 UNK         0.0000 
   1272 H(1)       11.7032   18.9915    3.9879 H         1 UNK         0.0000 
   1273 H(2)       13.6061   20.5103    3.7064 H         1 UNK         0.0000 
   1274 H(3)       13.0192   22.0153    7.6844 H         1 UNK         0.0000 
   1275 H(4)       11.1015   20.4831    7.9634 H         1 UNK         0.0000 
   1276 H(5)       14.7987   22.5873    6.2966 H         1 UNK         0.0000 
   1277 H(6)        9.8930   18.7175    7.2155 H         1 UNK         0.0000 
   1278 H(7)        8.4391   16.3783    5.8482 H         1 UNK         0.0000 
   1279 H(8)        8.0689   17.6160    6.9849 H         1 UNK         0.0000 
   1280 H(9)        7.3401   17.5732    5.3927 H         1 UNK         0.0000 
   1281 O(1)       21.7204   19.0458   15.9746 O.3       1 UNK         0.0000 
   1282 O(2)       16.7465   22.9903   14.6478 O.2       1 UNK         0.0000 
   1283 N(1)       17.3975   22.4660   16.7595 N.am      1 UNK         0.0000 
   1284 C(1)       18.5048   21.6261   16.5055 C.ar      1 UNK         0.0000 
   1285 C(2)       19.2277   21.6242   15.3126 C.ar      1 UNK         0.0000 
   1286 C(3)       20.3053   20.7575   15.1560 C.ar      1 UNK         0.0000 
   1287 C(4)       20.6756   19.8953   16.1849 C.ar      1 UNK         0.0000 
   1288 C(5)       19.9723   19.9190   17.3886 C.ar      1 UNK         0.0000 
   1289 C(6)       18.8945   20.7790   17.5435 C.ar      1 UNK         0.0000 
   1290 C(7)       16.5902   23.0682   15.8713 C.2       1 UNK         0.0000 
   1291 C(8)       15.4667   23.8697   16.4723 C.3       1 UNK         0.0000 
   1292 H(1)       18.9492   22.2870   14.5027 H         1 UNK         0.0000 
   1293 H(2)       20.8521   20.7682   14.2212 H         1 UNK         0.0000 
   1294 H(3)       20.2653   19.2632   18.1992 H         1 UNK         0.0000 
   1295 H(4)       18.3476   20.7954   18.4782 H         1 UNK         0.0000 
   1296 H(5)       22.0447   18.6912   16.8114 H         1 UNK         0.0000 
   1297 H(6)       17.1390   22.5611   17.7302 H         1 UNK         0.0000 
   1298 H(7)       15.6852   24.9002   16.3629 H         1 UNK         0.0000 
   1299 H(8)       15.3149   23.6625   17.4996 H         1 UNK         0.0000 
   1300 H(9)       14.5862   23.7053   15.9074 H         1 UNK         0.0000 
   1301 O(1)       23.1658   14.4593   21.7753 O.3       1 UNK         0.0000 
   1302 O(2)       28.1396   18.4038   23.1020 O.2       1 UNK         0.0000 
   1303 N(1)       27.4886   17.8795   20.9903 N.am      1 UNK         0.0000 
   1304 C(1)       26.3813   17.0396   21.2444 C.ar      1 UNK         0.0000 
   1305 C(2)       25.6585   17.0377   22.4372 C.ar      1 UNK         0.0000 
   1306 C(3)       24.5808   16.1710   22.5939 C.ar      1 UNK         0.0000 
   1307 C(4)       24.2105   15.3088   21.5650 C.ar      1 UNK         0.0000 
   1308 C(5)       24.9138   15.3325   20.3613 C.ar      1 UNK         0.0000 
   1309 C(6)       25.9916   16.1925   20.2063 C.ar      1 UNK         0.0000 
   1310 C(7)       28.2960   18.4817   21.8786 C.2       1 UNK         0.0000 
   1311 C(8)       29.4194   19.2832   21.2776 C.3       1 UNK         0.0000 
   1312 H(1)       25.9369   17.7005   23.2472 H         1 UNK         0.0000 
   1313 H(2)       24.0340   16.1817   23.5287 H         1 UNK         0.0000 
   1314 H(3)       24.6209   14.6767   19.5507 H         1 UNK         0.0000 
   1315 H(4)       26.5386   16.2089   19.2717 H         1 UNK         0.0000 
   1316 H(5)       22.8414   14.1047   20.9385 H         1 UNK         0.0000 
   1317 H(6)       27.7471   17.9746   20.0196 H         1 UNK         0.0000 
   1318 H(7)       29.2010   20.3137   21.3869 H         1 UNK         0.0000 
   1319 H(8)       29.5712   19.0760   20.2502 H         1 UNK         0.0000 
   1320 H(9)       30.2999   19.1188   21.8424 H         1 UNK         0.0000 
   1321 O(1)       15.9197   26.8192   11.2605 O.3       1 UNK         0.0000 
   1322 O(2)       20.8936   22.8747   12.5873 O.2       1 UNK         0.0000 
   1323 N(1)       20.2426   23.3990   10.4756 N.am      1 UNK         0.0000 
   1324 C(1)       19.1352   24.2389   10.7296 C.ar      1 UNK         0.0000 
   1325 C(2)       18.4124   24.2408   11.9225 C.ar      1 UNK         0.0000 
   1326 C(3)       17.3347   25.1075   12.0791 C.ar      1 UNK         0.0000 
   1327 C(4)       16.9644   25.9697   11.0502 C.ar      1 UNK         0.0000 
   1328 C(5)       17.6678   25.9460    9.8465 C.ar      1 UNK         0.0000 
   1329 C(6)       18.7456   25.0860    9.6916 C.ar      1 UNK         0.0000 
   1330 C(7)       21.0499   22.7968   11.3638 C.2       1 UNK         0.0000 
   1331 C(8)       22.1734   21.9953   10.7628 C.3       1 UNK         0.0000 
   1332 H(1)       18.6909   23.5780   12.7324 H         1 UNK         0.0000 
   1333 H(2)       16.7880   25.0968   13.0139 H         1 UNK         0.0000 
   1334 H(3)       17.3748   26.6018    9.0359 H         1 UNK         0.0000 
   1335 H(4)       19.2925   25.0696    8.7569 H         1 UNK         0.0000 
   1336 H(5)       15.5954   27.1738   10.4237 H         1 UNK         0.0000 
   1337 H(6)       20.5011   23.3040    9.5049 H         1 UNK         0.0000 
   1338 H(7)       21.9549   20.9648   10.8722 H         1 UNK         0.0000 
   1339 H(8)       22.3251   22.2025    9.7355 H         1 UNK         0.0000 
   1340 H(9)       23.0539   22.1597   11.3277 H         1 UNK         0.0000 
   1341 O(1)       27.0210   22.2327   12.4697 O.3       1 UNK         0.0000 
   1342 O(2)       22.0471   18.2882   11.1429 O.2       1 UNK         0.0000 
   1343 N(1)       22.6982   18.8125   13.2546 N.am      1 UNK         0.0000 
   1344 C(1)       23.8055   19.6524   13.0005 C.ar      1 UNK         0.0000 
   1345 C(2)       24.5283   19.6543   11.8077 C.ar      1 UNK         0.0000 
   1346 C(3)       25.6060   20.5210   11.6511 C.ar      1 UNK         0.0000 
   1347 C(4)       25.9763   21.3832   12.6800 C.ar      1 UNK         0.0000 
   1348 C(5)       25.2729   21.3595   13.8837 C.ar      1 UNK         0.0000 
   1349 C(6)       24.1951   20.4995   14.0386 C.ar      1 UNK         0.0000 
   1350 C(7)       21.8908   18.2103   12.3664 C.2       1 UNK         0.0000 
   1351 C(8)       20.7674   17.4088   12.9673 C.3       1 UNK         0.0000 
   1352 H(1)       24.2499   18.9915   10.9978 H         1 UNK         0.0000 
   1353 H(2)       26.1528   20.5103   10.7162 H         1 UNK         0.0000 
   1354 H(3)       25.5659   22.0153   14.6943 H         1 UNK         0.0000 
   1355 H(4)       23.6482   20.4831   14.9733 H         1 UNK         0.0000 
   1356 H(5)       27.3454   22.5873   13.3065 H         1 UNK         0.0000 
   1357 H(6)       22.4397   18.7175   14.2253 H         1 UNK         0.0000 
   1358 H(7)       20.9858   16.3783   12.8580 H         1 UNK         0.0000 
   1359 H(8)       20.6156   17.6160   13.9947 H         1 UNK         0.0000 
   1360 H(9)       19.8868   17.5732   12.4025 H         1 UNK         0.0000 
   1361 O(1)       22.6931   19.0458    1.7534 O.3       1 UNK         0.0000 
   1362 O(2)       17.7192   22.9903    0.4267 O.2       1 UNK         0.0000 
   1363 N(1)       18.3702   22.4660    2.5384 N.am      1 UNK         0.0000 
   1364 C(1)       19.4775   21.6261    2.2843 C.ar      1 UNK         0.0000 
   1365 C(2)       20.2004   21.6242    1.0915 C.ar      1 UNK         0.0000 
   1366 C(3)       21.2780   20.7575    0.9348 C.ar      1 UNK         0.0000 
   1367 C(4)       21.6483   19.8953    1.9637 C.ar      1 UNK         0.0000 
   1368 C(5)       20.9450   19.9190    3.1674 C.ar      1 UNK         0.0000 
   1369 C(6)       19.8672   20.7790    3.3223 C.ar      1 UNK         0.0000 
   1370 C(7)       17.5629   23.0682    1.6501 C.2       1 UNK         0.0000 
   1371 C(8)       16.4394   23.8697    2.2511 C.3       1 UNK         0.0000 
   1372 H(1)       19.9219   22.2870    0.2815 H         1 UNK         0.0000 
   1373 H(2)       21.8248   20.7682    0.0000 H         1 UNK         0.0000 
   1374 H(3)       21.2379   19.2632    3.9780 H         1 UNK         0.0000 
   1375 H(4)       19.3203   20.7954    4.2570 H         1 UNK         0.0000 
   1376 H(5)       23.0174   18.6912    2.5902 H         1 UNK         0.0000 
   1377 H(6)       18.1117   22.5611    3.5091 H         1 UNK         0.0000 
   1378 H(7)       16.6579   24.9002    2.1418 H         1 UNK         0.0000 
   1379 H(8)       16.2876   23.6625    3.2785 H         1 UNK         0.0000 
   1380 H(9)       15.5589   23.7053    1.6863 H         1 UNK         0.0000 
   1381 O(1)        9.6464   14.4593    7.7556 O.3       1 UNK         0.0000 
   1382 O(2)       14.6203   18.4038    9.0824 O.2       1 UNK         0.0000 
   1383 N(1)       13.9692   17.8795    6.9707 N.am      1 UNK         0.0000 
   1384 C(1)       12.8619   17.0396    7.2247 C.ar      1 UNK         0.0000 
   1385 C(2)       12.1391   17.0377    8.4175 C.ar      1 UNK         0.0000 
   1386 C(3)       11.0614   16.1710    8.5742 C.ar      1 UNK         0.0000 
   1387 C(4)       10.6911   15.3088    7.5453 C.ar      1 UNK         0.0000 
   1388 C(5)       11.3944   15.3325    6.3416 C.ar      1 UNK         0.0000 
   1389 C(6)       12.4723   16.1925    6.1867 C.ar      1 UNK         0.0000 
   1390 C(7)       14.7766   18.4817    7.8589 C.2       1 UNK         0.0000 
   1391 C(8)       15.9000   19.2832    7.2579 C.3       1 UNK         0.0000 
   1392 H(1)       12.4175   17.7005    9.2275 H         1 UNK         0.0000 
   1393 H(2)       10.5146   16.1817    9.5090 H         1 UNK         0.0000 
   1394 H(3)       11.1015   14.6767    5.5310 H         1 UNK         0.0000 
   1395 H(4)       13.0192   16.2089    5.2520 H         1 UNK         0.0000 
   1396 H(5)        9.3220   14.1047    6.9188 H         1 UNK         0.0000 
   1397 H(6)       14.2277   17.9746    5.9999 H         1 UNK         0.0000 
   1398 H(7)       15.6816   20.3137    7.3672 H         1 UNK         0.0000 
   1399 H(8)       16.0518   19.0760    6.2305 H         1 UNK         0.0000 
   1400 H(9)       16.7806   19.1188    7.8227 H         1 UNK         0.0000 
   1401 O(1)       16.8924   17.6462   18.2703 O.3       1 UNK         0.0000 
   1402 O(2)       21.8663   13.7017   19.5971 O.2       1 UNK         0.0000 
   1403 N(1)       21.2153   14.2260   17.4854 N.am      1 UNK         0.0000 
   1404 C(1)       20.1079   15.0659   17.7395 C.ar      1 UNK         0.0000 
   1405 C(2)       19.3851   15.0678   18.9323 C.ar      1 UNK         0.0000 
   1406 C(3)       18.3074   15.9345   19.0889 C.ar      1 UNK         0.0000 
   1407 C(4)       17.9371   16.7967   18.0600 C.ar      1 UNK         0.0000 
   1408 C(5)       18.6405   16.7730   16.8563 C.ar      1 UNK         0.0000 
   1409 C(6)       19.7183   15.9130   16.7014 C.ar      1 UNK         0.0000 
   1410 C(7)       22.0226   13.6238   18.3737 C.2       1 UNK         0.0000 
   1411 C(8)       23.1461   12.8223   17.7727 C.3       1 UNK         0.0000 
   1412 H(1)       19.6636   14.4050   19.7422 H         1 UNK         0.0000 
   1413 H(2)       17.7607   15.9238   20.0238 H         1 UNK         0.0000 
   1414 H(3)       18.3475   17.4288   16.0457 H         1 UNK         0.0000 
   1415 H(4)       20.2652   15.8966   15.7668 H         1 UNK         0.0000 
   1416 H(5)       16.5681   18.0008   17.4335 H         1 UNK         0.0000 
   1417 H(6)       21.4738   14.1310   16.5147 H         1 UNK         0.0000 
   1418 H(7)       22.9276   11.7918   17.8820 H         1 UNK         0.0000 
   1419 H(8)       23.2978   13.0295   16.7453 H         1 UNK         0.0000 
   1420 H(9)       24.0266   12.9867   18.3375 H         1 UNK         0.0000 
   1421 O(1)       16.4197   22.2327   19.4795 O.3       1 UNK         0.0000 
   1422 O(2)       11.4458   18.2882   18.1527 O.2       1 UNK         0.0000 
   1423 N(1)       12.0969   18.8125   20.2644 N.am      1 UNK         0.0000 
   1424 C(1)       13.2042   19.6524   20.0104 C.ar      1 UNK         0.0000 
   1425 C(2)       13.9270   19.6543   18.8176 C.ar      1 UNK         0.0000 
   1426 C(3)       15.0047   20.5210   18.6609 C.ar      1 UNK         0.0000 
   1427 C(4)       15.3750   21.3832   19.6898 C.ar      1 UNK         0.0000 
   1428 C(5)       14.6716   21.3595   20.8935 C.ar      1 UNK         0.0000 
   1429 C(6)       13.5938   20.4995   21.0484 C.ar      1 UNK         0.0000 
   1430 C(7)       11.2895   18.2103   19.3762 C.2       1 UNK         0.0000 
   1431 C(8)       10.1661   17.4088   19.9772 C.3       1 UNK         0.0000 
   1432 H(1)       13.6486   18.9915   18.0076 H         1 UNK         0.0000 
   1433 H(2)       15.5514   20.5103   17.7261 H         1 UNK         0.0000 
   1434 H(3)       14.9646   22.0153   21.7041 H         1 UNK         0.0000 
   1435 H(4)       13.0469   20.4831   21.9831 H         1 UNK         0.0000 
   1436 H(5)       16.7441   22.5873   20.3163 H         1 UNK         0.0000 
   1437 H(6)       11.8384   18.7175   21.2352 H         1 UNK         0.0000 
   1438 H(7)       10.3845   16.3783   19.8678 H         1 UNK         0.0000 
   1439 H(8)       10.0143   17.6160   21.0046 H         1 UNK         0.0000 
   1440 H(9)        9.2855   17.5732   19.4124 H         1 UNK         0.0000 
   1441 O(1)       32.3217    0.6998    8.9648 O.3       1 UNK         0.0000 
   1442 O(2)       27.3478    4.6443    7.6380 O.2       1 UNK         0.0000 
   1443 N(1)       27.9988    4.1200    9.7497 N.am      1 UNK         0.0000 
   1444 C(1)       29.1061    3.2801    9.4956 C.ar      1 UNK         0.0000 
   1445 C(2)       29.8290    3.2782    8.3028 C.ar      1 UNK         0.0000 
   1446 C(3)       30.9066    2.4115    8.1462 C.ar      1 UNK         0.0000 
   1447 C(4)       31.2770    1.5493    9.1751 C.ar      1 UNK         0.0000 
   1448 C(5)       30.5736    1.5730   10.3788 C.ar      1 UNK         0.0000 
   1449 C(6)       29.4958    2.4330   10.5337 C.ar      1 UNK         0.0000 
   1450 C(7)       27.1915    4.7222    8.8614 C.2       1 UNK         0.0000 
   1451 C(8)       26.0680    5.5237    9.4624 C.3       1 UNK         0.0000 
   1452 H(1)       29.5505    3.9410    7.4929 H         1 UNK         0.0000 
   1453 H(2)       31.4534    2.4222    7.2113 H         1 UNK         0.0000 
   1454 H(3)       30.8666    0.9172   11.1894 H         1 UNK         0.0000 
   1455 H(4)       28.9489    2.4494   11.4683 H         1 UNK         0.0000 
   1456 H(5)       32.6460    0.3452    9.8016 H         1 UNK         0.0000 
   1457 H(6)       27.7403    4.2150   10.7204 H         1 UNK         0.0000 
   1458 H(7)       26.2865    6.5542    9.3531 H         1 UNK         0.0000 
   1459 H(8)       25.9163    5.3165   10.4898 H         1 UNK         0.0000 
   1460 H(9)       25.1875    5.3593    8.8976 H         1 UNK         0.0000 
   1461 O(1)       22.1931   -3.8867   14.7654 O.3       1 UNK         0.0000 
   1462 O(2)       27.1670    0.0578   16.0922 O.2       1 UNK         0.0000 
   1463 N(1)       26.5159   -0.4665   13.9805 N.am      1 UNK         0.0000 
   1464 C(1)       25.4086   -1.3064   14.2346 C.ar      1 UNK         0.0000 
   1465 C(2)       24.6858   -1.3083   15.4274 C.ar      1 UNK         0.0000 
   1466 C(3)       23.6081   -2.1750   15.5840 C.ar      1 UNK         0.0000 
   1467 C(4)       23.2378   -3.0372   14.5551 C.ar      1 UNK         0.0000 
   1468 C(5)       23.9411   -3.0135   13.3514 C.ar      1 UNK         0.0000 
   1469 C(6)       25.0190   -2.1535   13.1965 C.ar      1 UNK         0.0000 
   1470 C(7)       27.3233    0.1357   14.8687 C.2       1 UNK         0.0000 
   1471 C(8)       28.4467    0.9372   14.2678 C.3       1 UNK         0.0000 
   1472 H(1)       24.9642   -0.6455   16.2373 H         1 UNK         0.0000 
   1473 H(2)       23.0613   -2.1643   16.5188 H         1 UNK         0.0000 
   1474 H(3)       23.6482   -3.6693   12.5408 H         1 UNK         0.0000 
   1475 H(4)       25.5659   -2.1371   12.2618 H         1 UNK         0.0000 
   1476 H(5)       21.8687   -4.2413   13.9286 H         1 UNK         0.0000 
   1477 H(6)       26.7744   -0.3715   13.0098 H         1 UNK         0.0000 
   1478 H(7)       28.2283    1.9677   14.3771 H         1 UNK         0.0000 
   1479 H(8)       28.5985    0.7300   13.2404 H         1 UNK         0.0000 
   1480 H(9)       29.3272    0.7728   14.8326 H         1 UNK         0.0000 
   1481 O(1)       26.5210    8.4732    4.2507 O.3       1 UNK         0.0000 
   1482 O(2)       31.4949    4.5287    5.5774 O.2       1 UNK         0.0000 
   1483 N(1)       30.8439    5.0530    3.4657 N.am      1 UNK         0.0000 
   1484 C(1)       29.7366    5.8929    3.7198 C.ar      1 UNK         0.0000 
   1485 C(2)       29.0137    5.8948    4.9126 C.ar      1 UNK         0.0000 
   1486 C(3)       27.9361    6.7615    5.0693 C.ar      1 UNK         0.0000 
   1487 C(4)       27.5657    7.6237    4.0404 C.ar      1 UNK         0.0000 
   1488 C(5)       28.2691    7.6000    2.8367 C.ar      1 UNK         0.0000 
   1489 C(6)       29.3469    6.7400    2.6817 C.ar      1 UNK         0.0000 
   1490 C(7)       31.6512    4.4508    4.3540 C.2       1 UNK         0.0000 
   1491 C(8)       32.7747    3.6493    3.7530 C.3       1 UNK         0.0000 
   1492 H(1)       29.2922    5.2320    5.7226 H         1 UNK         0.0000 
   1493 H(2)       27.3893    6.7508    6.0041 H         1 UNK         0.0000 
   1494 H(3)       27.9761    8.2558    2.0261 H         1 UNK         0.0000 
   1495 H(4)       29.8938    6.7236    1.7471 H         1 UNK         0.0000 
   1496 H(5)       26.1967    8.8278    3.4139 H         1 UNK         0.0000 
   1497 H(6)       31.1024    4.9580    2.4950 H         1 UNK         0.0000 
   1498 H(7)       32.5562    2.6188    3.8623 H         1 UNK         0.0000 
   1499 H(8)       32.9264    3.8565    2.7256 H         1 UNK         0.0000 
   1500 H(9)       33.6552    3.8137    4.3178 H         1 UNK         0.0000 
   1501 O(1)       26.0483    3.8867    5.4598 O.3       1 UNK         0.0000 
   1502 O(2)       21.0744   -0.0578    4.1331 O.2       1 UNK         0.0000 
   1503 N(1)       21.7255    0.4665    6.2448 N.am      1 UNK         0.0000 
   1504 C(1)       22.8328    1.3064    5.9907 C.ar      1 UNK         0.0000 
   1505 C(2)       23.5556    1.3083    4.7979 C.ar      1 UNK         0.0000 
   1506 C(3)       24.6333    2.1750    4.6412 C.ar      1 UNK         0.0000 
   1507 C(4)       25.0036    3.0372    5.6701 C.ar      1 UNK         0.0000 
   1508 C(5)       24.3003    3.0135    6.8738 C.ar      1 UNK         0.0000 
   1509 C(6)       23.2224    2.1535    7.0288 C.ar      1 UNK         0.0000 
   1510 C(7)       20.9181   -0.1357    5.3565 C.2       1 UNK         0.0000 
   1511 C(8)       19.7947   -0.9372    5.9575 C.3       1 UNK         0.0000 
   1512 H(1)       23.2772    0.6455    3.9879 H         1 UNK         0.0000 
   1513 H(2)       25.1801    2.1643    3.7064 H         1 UNK         0.0000 
   1514 H(3)       24.5932    3.6693    7.6844 H         1 UNK         0.0000 
   1515 H(4)       22.6755    2.1371    7.9634 H         1 UNK         0.0000 
   1516 H(5)       26.3727    4.2413    6.2966 H         1 UNK         0.0000 
   1517 H(6)       21.4670    0.3715    7.2155 H         1 UNK         0.0000 
   1518 H(7)       20.0131   -1.9677    5.8482 H         1 UNK         0.0000 
   1519 H(8)       19.6429   -0.7300    6.9849 H         1 UNK         0.0000 
   1520 H(9)       18.9141   -0.7728    5.3927 H         1 UNK         0.0000 
   1521 O(1)       33.2944    0.6998   15.9746 O.3       1 UNK         0.0000 
   1522 O(2)       28.3205    4.6443   14.6478 O.2       1 UNK         0.0000 
   1523 N(1)       28.9715    4.1200   16.7595 N.am      1 UNK         0.0000 
   1524 C(1)       30.0788    3.2801   16.5055 C.ar      1 UNK         0.0000 
   1525 C(2)       30.8017    3.2782   15.3126 C.ar      1 UNK         0.0000 
   1526 C(3)       31.8793    2.4115   15.1560 C.ar      1 UNK         0.0000 
   1527 C(4)       32.2496    1.5493   16.1849 C.ar      1 UNK         0.0000 
   1528 C(5)       31.5463    1.5730   17.3886 C.ar      1 UNK         0.0000 
   1529 C(6)       30.4685    2.4330   17.5435 C.ar      1 UNK         0.0000 
   1530 C(7)       28.1642    4.7222   15.8713 C.2       1 UNK         0.0000 
   1531 C(8)       27.0407    5.5237   16.4723 C.3       1 UNK         0.0000 
   1532 H(1)       30.5232    3.9410   14.5027 H         1 UNK         0.0000 
   1533 H(2)       32.4261    2.4222   14.2212 H         1 UNK         0.0000 
   1534 H(3)       31.8392    0.9172   18.1992 H         1 UNK         0.0000 
   1535 H(4)       29.9216    2.4494   18.4782 H         1 UNK         0.0000 
   1536 H(5)       33.6187    0.3452   16.8114 H         1 UNK         0.0000 
   1537 H(6)       28.7130    4.2150   17.7302 H         1 UNK         0.0000 
   1538 H(7)       27.2592    6.5542   16.3629 H         1 UNK         0.0000 
   1539 H(8)       26.8889    5.3165   17.4996 H         1 UNK         0.0000 
   1540 H(9)       26.1602    5.3593   15.9074 H         1 UNK         0.0000 
   1541 O(1)       34.7398   -3.8867   21.7753 O.3       1 UNK         0.0000 
   1542 O(2)       39.7137    0.0578   23.1020 O.2       1 UNK         0.0000 
   1543 N(1)       39.0626   -0.4665   20.9903 N.am      1 UNK         0.0000 
   1544 C(1)       37.9553   -1.3064   21.2444 C.ar      1 UNK         0.0000 
   1545 C(2)       37.2325   -1.3083   22.4372 C.ar      1 UNK         0.0000 
   1546 C(3)       36.1548   -2.1750   22.5939 C.ar      1 UNK         0.0000 
   1547 C(4)       35.7845   -3.0372   21.5650 C.ar      1 UNK         0.0000 
   1548 C(5)       36.4878   -3.0135   20.3613 C.ar      1 UNK         0.0000 
   1549 C(6)       37.5656   -2.1535   20.2063 C.ar      1 UNK         0.0000 
   1550 C(7)       39.8700    0.1357   21.8786 C.2       1 UNK         0.0000 
   1551 C(8)       40.9934    0.9372   21.2776 C.3       1 UNK         0.0000 
   1552 H(1)       37.5109   -0.6455   23.2472 H         1 UNK         0.0000 
   1553 H(2)       35.6080   -2.1643   23.5287 H         1 UNK         0.0000 
   1554 H(3)       36.1949   -3.6693   19.5507 H         1 UNK         0.0000 
   1555 H(4)       38.1126   -2.1371   19.2717 H         1 UNK         0.0000 
   1556 H(5)       34.4154   -4.2413   20.9385 H         1 UNK         0.0000 
   1557 H(6)       39.3211   -0.3715   20.0196 H         1 UNK         0.0000 
   1558 H(7)       40.7750    1.9677   21.3869 H         1 UNK         0.0000 
   1559 H(8)       41.1452    0.7300   20.2502 H         1 UNK         0.0000 
   1560 H(9)       41.8739    0.7728   21.8424 H         1 UNK         0.0000 
   1561 O(1)       27.4937    8.4732   11.2605 O.3       1 UNK         0.0000 
   1562 O(2)       32.4676    4.5287   12.5873 O.2       1 UNK         0.0000 
   1563 N(1)       31.8166    5.0530   10.4756 N.am      1 UNK         0.0000 
   1564 C(1)       30.7092    5.8929   10.7296 C.ar      1 UNK         0.0000 
   1565 C(2)       29.9864    5.8948   11.9225 C.ar      1 UNK         0.0000 
   1566 C(3)       28.9087    6.7615   12.0791 C.ar      1 UNK         0.0000 
   1567 C(4)       28.5384    7.6237   11.0502 C.ar      1 UNK         0.0000 
   1568 C(5)       29.2418    7.6000    9.8465 C.ar      1 UNK         0.0000 
   1569 C(6)       30.3196    6.7400    9.6916 C.ar      1 UNK         0.0000 
   1570 C(7)       32.6239    4.4508   11.3638 C.2       1 UNK         0.0000 
   1571 C(8)       33.7474    3.6493   10.7628 C.3       1 UNK         0.0000 
   1572 H(1)       30.2649    5.2320   12.7324 H         1 UNK         0.0000 
   1573 H(2)       28.3620    6.7508   13.0139 H         1 UNK         0.0000 
   1574 H(3)       28.9488    8.2558    9.0359 H         1 UNK         0.0000 
   1575 H(4)       30.8665    6.7236    8.7569 H         1 UNK         0.0000 
   1576 H(5)       27.1694    8.8278   10.4237 H         1 UNK         0.0000 
   1577 H(6)       32.0751    4.9580    9.5049 H         1 UNK         0.0000 
   1578 H(7)       33.5289    2.6188   10.8722 H         1 UNK         0.0000 
   1579 H(8)       33.8991    3.8565    9.7355 H         1 UNK         0.0000 
   1580 H(9)       34.6279    3.8137   11.3277 H         1 UNK         0.0000 
   1581 O(1)       38.5950    3.8867   12.4697 O.3       1 UNK         0.0000 
   1582 O(2)       33.6211   -0.0578   11.1429 O.2       1 UNK         0.0000 
   1583 N(1)       34.2722    0.4665   13.2546 N.am      1 UNK         0.0000 
   1584 C(1)       35.3795    1.3064   13.0005 C.ar      1 UNK         0.0000 
   1585 C(2)       36.1023    1.3083   11.8077 C.ar      1 UNK         0.0000 
   1586 C(3)       37.1800    2.1750   11.6511 C.ar      1 UNK         0.0000 
   1587 C(4)       37.5503    3.0372   12.6800 C.ar      1 UNK         0.0000 
   1588 C(5)       36.8469    3.0135   13.8837 C.ar      1 UNK         0.0000 
   1589 C(6)       35.7691    2.1535   14.0386 C.ar      1 UNK         0.0000 
   1590 C(7)       33.4648   -0.1357   12.3664 C.2       1 UNK         0.0000 
   1591 C(8)       32.3414   -0.9372   12.9673 C.3       1 UNK         0.0000 
   1592 H(1)       35.8239    0.6455   10.9978 H         1 UNK         0.0000 
   1593 H(2)       37.7268    2.1643   10.7162 H         1 UNK         0.0000 
   1594 H(3)       37.1399    3.6693   14.6943 H         1 UNK         0.0000 
   1595 H(4)       35.2222    2.1371   14.9733 H         1 UNK         0.0000 
   1596 H(5)       38.9194    4.2413   13.3065 H         1 UNK         0.0000 
   1597 H(6)       34.0137    0.3715   14.2253 H         1 UNK         0.0000 
   1598 H(7)       32.5598   -1.9677   12.8580 H         1 UNK         0.0000 
   1599 H(8)       32.1896   -0.7300   13.9947 H         1 UNK         0.0000 
   1600 H(9)       31.4608   -0.7728   12.4025 H         1 UNK         0.0000 
   1601 O(1)       34.2671    0.6998    1.7534 O.3       1 UNK         0.0000 
   1602 O(2)       29.2932    4.6443    0.4267 O.2       1 UNK         0.0000 
   1603 N(1)       29.9442    4.1200    2.5384 N.am      1 UNK         0.0000 
   1604 C(1)       31.0515    3.2801    2.2843 C.ar      1 UNK         0.0000 
   1605 C(2)       31.7744    3.2782    1.0915 C.ar      1 UNK         0.0000 
   1606 C(3)       32.8520    2.4115    0.9348 C.ar      1 UNK         0.0000 
   1607 C(4)       33.2223    1.5493    1.9637 C.ar      1 UNK         0.0000 
   1608 C(5)       32.5190    1.5730    3.1674 C.ar      1 UNK         0.0000 
   1609 C(6)       31.4412    2.4330    3.3223 C.ar      1 UNK         0.0000 
   1610 C(7)       29.1369    4.7222    1.6501 C.2       1 UNK         0.0000 
   1611 C(8)       28.0134    5.5237    2.2511 C.3       1 UNK         0.0000 
   1612 H(1)       31.4959    3.9410    0.2815 H         1 UNK         0.0000 
   1613 H(2)       33.3988    2.4222    0.0000 H         1 UNK         0.0000 
   1614 H(3)       32.8119    0.9172    3.9780 H         1 UNK         0.0000 
   1615 H(4)       30.8943    2.4494    4.2570 H         1 UNK         0.0000 
   1616 H(5)       34.5914    0.3452    2.5902 H         1 UNK         0.0000 
   1617 H(6)       29.6857    4.2150    3.5091 H         1 UNK         0.0000 
   1618 H(7)       28.2319    6.5542    2.1418 H         1 UNK         0.0000 
   1619 H(8)       27.8616    5.3165    3.2785 H         1 UNK         0.0000 
   1620 H(9)       27.1329    5.3593    1.6863 H         1 UNK         0.0000 
   1621 O(1)       21.2204   -3.8867    7.7556 O.3       1 UNK         0.0000 
   1622 O(2)       26.1943    0.0578    9.0824 O.2       1 UNK         0.0000 
   1623 N(1)       25.5432   -0.4665    6.9707 N.am      1 UNK         0.0000 
   1624 C(1)       24.4359   -1.3064    7.2247 C.ar      1 UNK         0.0000 
   1625 C(2)       23.7131   -1.3083    8.4175 C.ar      1 UNK         0.0000 
   1626 C(3)       22.6354   -2.1750    8.5742 C.ar      1 UNK         0.0000 
   1627 C(4)       22.2651   -3.0372    7.5453 C.ar      1 UNK         0.0000 
   1628 C(5)       22.9684   -3.0135    6.3416 C.ar      1 UNK         0.0000 
   1629 C(6)       24.0463   -2.1535    6.1867 C.ar      1 UNK         0.0000 
   1630 C(7)       26.3506    0.1357    7.8589 C.2       1 UNK         0.0000 
   1631 C(8)       27.4740    0.9372    7.2579 C.3       1 UNK         0.0000 
   1632 H(1)       23.9915   -0.6455    9.2275 H         1 UNK         0.0000 
   1633 H(2)       22.0886   -2.1643    9.5090 H         1 UNK         0.0000 
   1634 H(3)       22.6755   -3.6693    5.5310 H         1 UNK         0.0000 
   1635 H(4)       24.5932   -2.1371    5.2520 H         1 UNK         0.0000 
   1636 H(5)       20.8960   -4.2413    6.9188 H         1 UNK         0.0000 
   1637 H(6)       25.8017   -0.3715    5.9999 H         1 UNK         0.0000 
   1638 H(7)       27.2556    1.9677    7.3672 H         1 UNK         0.0000 
   1639 H(8)       27.6258    0.7300    6.2305 H         1 UNK         0.0000 
   1640 H(9)       28.3546    0.7728    7.8227 H         1 UNK         0.0000 
   1641 O(1)       28.4664   -0.6998   18.2703 O.3       1 UNK         0.0000 
   1642 O(2)       33.4403   -4.6443   19.5971 O.2       1 UNK         0.0000 
   1643 N(1)       32.7893   -4.1200   17.4854 N.am      1 UNK         0.0000 
   1644 C(1)       31.6819   -3.2801   17.7395 C.ar      1 UNK         0.0000 
   1645 C(2)       30.9591   -3.2782   18.9323 C.ar      1 UNK         0.0000 
   1646 C(3)       29.8814   -2.4115   19.0889 C.ar      1 UNK         0.0000 
   1647 C(4)       29.5111   -1.5493   18.0600 C.ar      1 UNK         0.0000 
   1648 C(5)       30.2145   -1.5730   16.8563 C.ar      1 UNK         0.0000 
   1649 C(6)       31.2923   -2.4330   16.7014 C.ar      1 UNK         0.0000 
   1650 C(7)       33.5966   -4.7222   18.3737 C.2       1 UNK         0.0000 
   1651 C(8)       34.7201   -5.5237   17.7727 C.3       1 UNK         0.0000 
   1652 H(1)       31.2376   -3.9410   19.7422 H         1 UNK         0.0000 
   1653 H(2)       29.3347   -2.4222   20.0238 H         1 UNK         0.0000 
   1654 H(3)       29.9215   -0.9172   16.0457 H         1 UNK         0.0000 
   1655 H(4)       31.8392   -2.4494   15.7668 H         1 UNK         0.0000 
   1656 H(5)       28.1421   -0.3452   17.4335 H         1 UNK         0.0000 
   1657 H(6)       33.0478   -4.2150   16.5147 H         1 UNK         0.0000 
   1658 H(7)       34.5016   -6.5542   17.8820 H         1 UNK         0.0000 
   1659 H(8)       34.8718   -5.3165   16.7453 H         1 UNK         0.0000 
   1660 H(9)       35.6006   -5.3593   18.3375 H         1 UNK         0.0000 
   1661 O(1)       27.9937    3.8867   19.4795 O.3       1 UNK         0.0000 
   1662 O(2)       23.0198   -0.0578   18.1527 O.2       1 UNK         0.0000 
   1663 N(1)       23.6709    0.4665   20.2644 N.am      1 UNK         0.0000 
   1664 C(1)       24.7782    1.3064   20.0104 C.ar      1 UNK         0.0000 
   1665 C(2)       25.5010    1.3083   18.8176 C.ar      1 UNK         0.0000 
   1666 C(3)       26.5787    2.1750   18.6609 C.ar      1 UNK         0.0000 
   1667 C(4)       26.9490    3.0372   19.6898 C.ar      1 UNK         0.0000 
   1668 C(5)       26.2456    3.0135   20.8935 C.ar      1 UNK         0.0000 
   1669 C(6)       25.1678    2.1535   21.0484 C.ar      1 UNK         0.0000 
   1670 C(7)       22.8635   -0.1357   19.3762 C.2       1 UNK         0.0000 
   1671 C(8)       21.7401   -0.9372   19.9772 C.3       1 UNK         0.0000 
   1672 H(1)       25.2226    0.6455   18.0076 H         1 UNK         0.0000 
   1673 H(2)       27.1254    2.1643   17.7261 H         1 UNK         0.0000 
   1674 H(3)       26.5386    3.6693   21.7041 H         1 UNK         0.0000 
   1675 H(4)       24.6209    2.1371   21.9831 H         1 UNK         0.0000 
   1676 H(5)       28.3181    4.2413   20.3163 H         1 UNK         0.0000 
   1677 H(6)       23.4124    0.3715   21.2352 H         1 UNK         0.0000 
   1678 H(7)       21.9585   -1.9677   19.8678 H         1 UNK         0.0000 
   1679 H(8)       21.5883   -0.7300   21.0046 H         1 UNK         0.0000 
   1680 H(9)       20.8595   -0.7728   19.4124 H         1 UNK         0.0000 
   1681 O(1)       32.3217    9.8728    8.9648 O.3       1 UNK         0.0000 
   1682 O(2)       27.3478   13.8173    7.6380 O.2       1 UNK         0.0000 
   1683 N(1)       27.9988   13.2930    9.7497 N.am      1 UNK         0.0000 
   1684 C(1)       29.1061   12.4531    9.4956 C.ar      1 UNK         0.0000 
   1685 C(2)       29.8290   12.4512    8.3028 C.ar      1 UNK         0.0000 
   1686 C(3)       30.9066   11.5845    8.1462 C.ar      1 UNK         0.0000 
   1687 C(4)       31.2770   10.7223    9.1751 C.ar      1 UNK         0.0000 
   1688 C(5)       30.5736   10.7460   10.3788 C.ar      1 UNK         0.0000 
   1689 C(6)       29.4958   11.6060   10.5337 C.ar      1 UNK         0.0000 
   1690 C(7)       27.1915   13.8952    8.8614 C.2       1 UNK         0.0000 
   1691 C(8)       26.0680   14.6967    9.4624 C.3       1 UNK         0.0000 
   1692 H(1)       29.5505   13.1140    7.4929 H         1 UNK         0.0000 
   1693 H(2)       31.4534   11.5952    7.2113 H         1 UNK         0.0000 
   1694 H(3)       30.8666   10.0902   11.1894 H         1 UNK         0.0000 
   1695 H(4)       28.9489   11.6224   11.4683 H         1 UNK         0.0000 
   1696 H(5)       32.6460    9.5182    9.8016 H         1 UNK         0.0000 
   1697 H(6)       27.7403   13.3880   10.7204 H         1 UNK         0.0000 
   1698 H(7)       26.2865   15.7272    9.3531 H         1 UNK         0.0000 
   1699 H(8)       25.9163   14.4895   10.4898 H         1 UNK         0.0000 
   1700 H(9)       25.1875   14.5323    8.8976 H         1 UNK         0.0000 
   1701 O(1)       22.1931    5.2863   14.7654 O.3       1 UNK         0.0000 
   1702 O(2)       27.1670    9.2308   16.0922 O.2       1 UNK         0.0000 
   1703 N(1)       26.5159    8.7065   13.9805 N.am      1 UNK         0.0000 
   1704 C(1)       25.4086    7.8666   14.2346 C.ar      1 UNK         0.0000 
   1705 C(2)       24.6858    7.8647   15.4274 C.ar      1 UNK         0.0000 
   1706 C(3)       23.6081    6.9980   15.5840 C.ar      1 UNK         0.0000 
   1707 C(4)       23.2378    6.1358   14.5551 C.ar      1 UNK         0.0000 
   1708 C(5)       23.9411    6.1595   13.3514 C.ar      1 UNK         0.0000 
   1709 C(6)       25.0190    7.0195   13.1965 C.ar      1 UNK         0.0000 
   1710 C(7)       27.3233    9.3087   14.8687 C.2       1 UNK         0.0000 
   1711 C(8)       28.4467   10.1102   14.2678 C.3       1 UNK         0.0000 
   1712 H(1)       24.9642    8.5275   16.2373 H         1 UNK         0.0000 
   1713 H(2)       23.0613    7.0087   16.5188 H         1 UNK         0.0000 
   1714 H(3)       23.6482    5.5037   12.5408 H         1 UNK         0.0000 
   1715 H(4)       25.5659    7.0359   12.2618 H         1 UNK         0.0000 
   1716 H(5)       21.8687    4.9317   13.9286 H         1 UNK         0.0000 
   1717 H(6)       26.7744    8.8015   13.0098 H         1 UNK         0.0000 
   1718 H(7)       28.2283   11.1407   14.3771 H         1 UNK         0.0000 
   1719 H(8)       28.5985    9.9030   13.2404 H         1 UNK         0.0000 
   1720 H(9)       29.3272    9.9458   14.8326 H         1 UNK         0.0000 
   1721 O(1)       26.5210   17.6462    4.2507 O.3       1 UNK         0.0000 
   1722 O(2)       31.4949   13.7017    5.5774 O.2       1 UNK         0.0000 
   1723 N(1)       30.8439   14.2260    3.4657 N.am      1 UNK         0.0000 
   1724 C(1)       29.7366   15.0659    3.7198 C.ar      1 UNK         0.0000 
   1725 C(2)       29.0137   15.0678    4.9126 C.ar      1 UNK         0.0000 
   1726 C(3)       27.9361   15.9345    5.0693 C.ar      1 UNK         0.0000 
   1727 C(4)       27.5657   16.7967    4.0404 C.ar      1 UNK         0.0000 
   1728 C(5)       28.2691   16.7730    2.8367 C.ar      1 UNK         0.0000 
   1729 C(6)       29.3469   15.9130    2.6817 C.ar      1 UNK         0.0000 
   1730 C(7)       31.6512   13.6238    4.3540 C.2       1 UNK         0.0000 
   1731 C(8)       32.7747   12.8223    3.7530 C.3       1 UNK         0.0000 
   1732 H(1)       29.2922   14.4050    5.7226 H         1 UNK         0.0000 
   1733 H(2)       27.3893   15.9238    6.0041 H         1 UNK         0.0000 
   1734 H(3)       27.9761   17.4288    2.0261 H         1 UNK         0.0000 
   1735 H(4)       29.8938   15.8966    1.7471 H         1 UNK         0.0000 
   1736 H(5)       26.1967   18.0008    3.4139 H         1 UNK         0.0000 
   1737 H(6)       31.1024   14.1310    2.4950 H         1 UNK         0.0000 
   1738 H(7)       32.5562   11.7918    3.8623 H         1 UNK         0.0000 
   1739 H(8)       32.9264   13.0295    2.7256 H         1 UNK         0.0000 
   1740 H(9)       33.6552   12.9867    4.3178 H         1 UNK         0.0000 
   1741 O(1)       26.0483   13.0597    5.4598 O.3       1 UNK         0.0000 
   1742 O(2)       21.0744    9.1152    4.1331 O.2       1 UNK         0.0000 
   1743 N(1)       21.7255    9.6395    6.2448 N.am      1 UNK         0.0000 
   1744 C(1)       22.8328   10.4794    5.9907 C.ar      1 UNK         0.0000 
   1745 C(2)       23.5556   10.4813    4.7979 C.ar      1 UNK         0.0000 
   1746 C(3)       24.6333   11.3480    4.6412 C.ar      1 UNK         0.0000 
   1747 C(4)       25.0036   12.2102    5.6701 C.ar      1 UNK         0.0000 
   1748 C(5)       24.3003   12.1865    6.8738 C.ar      1 UNK         0.0000 
   1749 C(6)       23.2224   11.3265    7.0288 C.ar      1 UNK         0.0000 
   1750 C(7)       20.9181    9.0373    5.3565 C.2       1 UNK         0.0000 
   1751 C(8)       19.7947    8.2358    5.9575 C.3       1 UNK         0.0000 
   1752 H(1)       23.2772    9.8185    3.9879 H         1 UNK         0.0000 
   1753 H(2)       25.1801   11.3373    3.7064 H         1 UNK         0.0000 
   1754 H(3)       24.5932   12.8423    7.6844 H         1 UNK         0.0000 
   1755 H(4)       22.6755   11.3101    7.9634 H         1 UNK         0.0000 
   1756 H(5)       26.3727   13.4143    6.2966 H         1 UNK         0.0000 
   1757 H(6)       21.4670    9.5445    7.2155 H         1 UNK         0.0000 
   1758 H(7)       20.0131    7.2053    5.8482 H         1 UNK         0.0000 
   1759 H(8)       19.6429    8.4430    6.9849 H         1 UNK         0.0000 
   1760 H(9)       18.9141    8.4002    5.3927 H         1 UNK         0.0000 
   1761 O(1)       33.2944    9.8728   15.9746 O.3       1 UNK         0.0000 
   1762 O(2)       28.3205   13.8173   14.6478 O.2       1 UNK         0.0000 
   1763 N(1)       28.9715   13.2930   16.7595 N.am      1 UNK         0.0000 
   1764 C(1)       30.0788   12.4531   16.5055 C.ar      1 UNK         0.0000 
   1765 C(2)       30.8017   12.4512   15.3126 C.ar      1 UNK         0.0000 
   1766 C(3)       31.8793   11.5845   15.1560 C.ar      1 UNK         0.0000 
   1767 C(4)       32.2496   10.7223   16.1849 C.ar      1 UNK         0.0000 
   1768 C(5)       31.5463   10.7460   17.3886 C.ar      1 UNK         0.0000 
   1769 C(6)       30.4685   11.6060   17.5435 C.ar      1 UNK         0.0000 
   1770 C(7)       28.1642   13.8952   15.8713 C.2       1 UNK         0.0000 
   1771 C(8)       27.0407   14.6967   16.4723 C.3       1 UNK         0.0000 
   1772 H(1)       30.5232   13.1140   14.5027 H         1 UNK         0.0000 
   1773 H(2)       32.4261   11.5952   14.2212 H         1 UNK         0.0000 
   1774 H(3)       31.8392   10.0902   18.1992 H         1 UNK         0.0000 
   1775 H(4)       29.9216   11.6224   18.4782 H         1 UNK         0.0000 
   1776 H(5)       33.6187    9.5182   16.8114 H         1 UNK         0.0000 
   1777 H(6)       28.7130   13.3880   17.7302 H         1 UNK         0.0000 
   1778 H(7)       27.2592   15.7272   16.3629 H         1 UNK         0.0000 
   1779 H(8)       26.8889   14.4895   17.4996 H         1 UNK         0.0000 
   1780 H(9)       26.1602   14.5323   15.9074 H         1 UNK         0.0000 
   1781 O(1)       34.7398    5.2863   21.7753 O.3       1 UNK         0.0000 
   1782 O(2)       39.7137    9.2308   23.1020 O.2       1 UNK         0.0000 
   1783 N(1)       39.0626    8.7065   20.9903 N.am      1 UNK         0.0000 
   1784 C(1)       37.9553    7.8666   21.2444 C.ar      1 UNK         0.0000 
   1785 C(2)       37.2325    7.8647   22.4372 C.ar      1 UNK         0.0000 
   1786 C(3)       36.1548    6.9980   22.5939 C.ar      1 UNK         0.0000 
   1787 C(4)       35.7845    6.1358   21.5650 C.ar      1 UNK         0.0000 
   1788 C(5)       36.4878    6.1595   20.3613 C.ar      1 UNK         0.0000 
   1789 C(6)       37.5656    7.0195   20.2063 C.ar      1 UNK         0.0000 
   1790 C(7)       39.8700    9.3087   21.8786 C.2       1 UNK         0.0000 
   1791 C(8)       40.9934   10.1102   21.2776 C.3       1 UNK         0.0000 
   1792 H(1)       37.5109    8.5275   23.2472 H         1 UNK         0.0000 
   1793 H(2)       35.6080    7.0087   23.5287 H         1 UNK         0.0000 
   1794 H(3)       36.1949    5.5037   19.5507 H         1 UNK         0.0000 
   1795 H(4)       38.1126    7.0359   19.2717 H         1 UNK         0.0000 
   1796 H(5)       34.4154    4.9317   20.9385 H         1 UNK         0.0000 
   1797 H(6)       39.3211    8.8015   20.0196 H         1 UNK         0.0000 
   1798 H(7)       40.7750   11.1407   21.3869 H         1 UNK         0.0000 
   1799 H(8)       41.1452    9.9030   20.2502 H         1 UNK         0.0000 
   1800 H(9)       41.8739    9.9458   21.8424 H         1 UNK         0.0000 
   1801 O(1)       27.4937   17.6462   11.2605 O.3       1 UNK         0.0000 
   1802 O(2)       32.4676   13.7017   12.5873 O.2       1 UNK         0.0000 
   1803 N(1)       31.8166   14.2260   10.4756 N.am      1 UNK         0.0000 
   1804 C(1)       30.7092   15.0659   10.7296 C.ar      1 UNK         0.0000 
   1805 C(2)       29.9864   15.0678   11.9225 C.ar      1 UNK         0.0000 
   1806 C(3)       28.9087   15.9345   12.0791 C.ar      1 UNK         0.0000 
   1807 C(4)       28.5384   16.7967   11.0502 C.ar      1 UNK         0.0000 
   1808 C(5)       29.2418   16.7730    9.8465 C.ar      1 UNK         0.0000 
   1809 C(6)       30.3196   15.9130    9.6916 C.ar      1 UNK         0.0000 
   1810 C(7)       32.6239   13.6238   11.3638 C.2       1 UNK         0.0000 
   1811 C(8)       33.7474   12.8223   10.7628 C.3       1 UNK         0.0000 
   1812 H(1)       30.2649   14.4050   12.7324 H         1 UNK         0.0000 
   1813 H(2)       28.3620   15.9238   13.0139 H         1 UNK         0.0000 
   1814 H(3)       28.9488   17.4288    9.0359 H         1 UNK         0.0000 
   1815 H(4)       30.8665   15.8966    8.7569 H         1 UNK         0.0000 
   1816 H(5)       27.1694   18.0008   10.4237 H         1 UNK         0.0000 
   1817 H(6)       32.0751   14.1310    9.5049 H         1 UNK         0.0000 
   1818 H(7)       33.5289   11.7918   10.8722 H         1 UNK         0.0000 
   1819 H(8)       33.8991   13.0295    9.7355 H         1 UNK         0.0000 
   1820 H(9)       34.6279   12.9867   11.3277 H         1 UNK         0.0000 
   1821 O(1)       38.5950   13.0597   12.4697 O.3       1 UNK         0.0000 
   1822 O(2)       33.6211    9.1152   11.1429 O.2       1 UNK         0.0000 
   1823 N(1)       34.2722    9.6395   13.2546 N.am      1 UNK         0.0000 
   1824 C(1)       35.3795   10.4794   13.0005 C.ar      1 UNK         0.0000 
   1825 C(2)       36.1023   10.4813   11.8077 C.ar      1 UNK         0.0000 
   1826 C(3)       37.1800   11.3480   11.6511 C.ar      1 UNK         0.0000 
   1827 C(4)       37.5503   12.2102   12.6800 C.ar      1 UNK         0.0000 
   1828 C(5)       36.8469   12.1865   13.8837 C.ar      1 UNK         0.0000 
   1829 C(6)       35.7691   11.3265   14.0386 C.ar      1 UNK         0.0000 
   1830 C(7)       33.4648    9.0373   12.3664 C.2       1 UNK         0.0000 
   1831 C(8)       32.3414    8.2358   12.9673 C.3       1 UNK         0.0000 
   1832 H(1)       35.8239    9.8185   10.9978 H         1 UNK         0.0000 
   1833 H(2)       37.7268   11.3373   10.7162 H         1 UNK         0.0000 
   1834 H(3)       37.1399   12.8423   14.6943 H         1 UNK         0.0000 
   1835 H(4)       35.2222   11.3101   14.9733 H         1 UNK         0.0000 
   1836 H(5)       38.9194   13.4143   13.3065 H         1 UNK         0.0000 
   1837 H(6)       34.0137    9.5445   14.2253 H         1 UNK         0.0000 
   1838 H(7)       32.5598    7.2053   12.8580 H         1 UNK         0.0000 
   1839 H(8)       32.1896    8.4430   13.9947 H         1 UNK         0.0000 
   1840 H(9)       31.4608    8.4002   12.4025 H         1 UNK         0.0000 
   1841 O(1)       34.2671    9.8728    1.7534 O.3       1 UNK         0.0000 
   1842 O(2)       29.2932   13.8173    0.4267 O.2       1 UNK         0.0000 
   1843 N(1)       29.9442   13.2930    2.5384 N.am      1 UNK         0.0000 
   1844 C(1)       31.0515   12.4531    2.2843 C.ar      1 UNK         0.0000 
   1845 C(2)       31.7744   12.4512    1.0915 C.ar      1 UNK         0.0000 
   1846 C(3)       32.8520   11.5845    0.9348 C.ar      1 UNK         0.0000 
   1847 C(4)       33.2223   10.7223    1.9637 C.ar      1 UNK         0.0000 
   1848 C(5)       32.5190   10.7460    3.1674 C.ar      1 UNK         0.0000 
   1849 C(6)       31.4412   11.6060    3.3223 C.ar      1 UNK         0.0000 
   1850 C(7)       29.1369   13.8952    1.6501 C.2       1 UNK         0.0000 
   1851 C(8)       28.0134   14.6967    2.2511 C.3       1 UNK         0.0000 
   1852 H(1)       31.4959   13.1140    0.2815 H         1 UNK         0.0000 
   1853 H(2)       33.3988   11.5952    0.0000 H         1 UNK         0.0000 
   1854 H(3)       32.8119   10.0902    3.9780 H         1 UNK         0.0000 
   1855 H(4)       30.8943   11.6224    4.2570 H         1 UNK         0.0000 
   1856 H(5)       34.5914    9.5182    2.5902 H         1 UNK         0.0000 
   1857 H(6)       29.6857   13.3880    3.5091 H         1 UNK         0.0000 
   1858 H(7)       28.2319   15.7272    2.1418 H         1 UNK         0.0000 
   1859 H(8)       27.8616   14.4895    3.2785 H         1 UNK         0.0000 
   1860 H(9)       27.1329   14.5323    1.6863 H         1 UNK         0.0000 
   1861 O(1)       21.2204    5.2863    7.7556 O.3       1 UNK         0.0000 
   1862 O(2)       26.1943    9.2308    9.0824 O.2       1 UNK         0.0000 
   1863 N(1)       25.5432    8.7065    6.9707 N.am      1 UNK         0.0000 
   1864 C(1)       24.4359    7.8666    7.2247 C.ar      1 UNK         0.0000 
   1865 C(2)       23.7131    7.8647    8.4175 C.ar      1 UNK         0.0000 
   1866 C(3)       22.6354    6.9980    8.5742 C.ar      1 UNK         0.0000 
   1867 C(4)       22.2651    6.1358    7.5453 C.ar      1 UNK         0.0000 
   1868 C(5)       22.9684    6.1595    6.3416 C.ar      1 UNK         0.0000 
   1869 C(6)       24.0463    7.0195    6.1867 C.ar      1 UNK         0.0000 
   1870 C(7)       26.3506    9.3087    7.8589 C.2       1 UNK         0.0000 
   1871 C(8)       27.4740   10.1102    7.2579 C.3       1 UNK         0.0000 
   1872 H(1)       23.9915    8.5275    9.2275 H         1 UNK         0.0000 
   1873 H(2)       22.0886    7.0087    9.5090 H         1 UNK         0.0000 
   1874 H(3)       22.6755    5.5037    5.5310 H         1 UNK         0.0000 
   1875 H(4)       24.5932    7.0359    5.2520 H         1 UNK         0.0000 
   1876 H(5)       20.8960    4.9317    6.9188 H         1 UNK         0.0000 
   1877 H(6)       25.8017    8.8015    5.9999 H         1 UNK         0.0000 
   1878 H(7)       27.2556   11.1407    7.3672 H         1 UNK         0.0000 
   1879 H(8)       27.6258    9.9030    6.2305 H         1 UNK         0.0000 
   1880 H(9)       28.3546    9.9458    7.8227 H         1 UNK         0.0000 
   1881 O(1)       28.4664    8.4732   18.2703 O.3       1 UNK         0.0000 
   1882 O(2)       33.4403    4.5287   19.5971 O.2       1 UNK         0.0000 
   1883 N(1)       32.7893    5.0530   17.4854 N.am      1 UNK         0.0000 
   1884 C(1)       31.6819    5.8929   17.7395 C.ar      1 UNK         0.0000 
   1885 C(2)       30.9591    5.8948   18.9323 C.ar      1 UNK         0.0000 
   1886 C(3)       29.8814    6.7615   19.0889 C.ar      1 UNK         0.0000 
   1887 C(4)       29.5111    7.6237   18.0600 C.ar      1 UNK         0.0000 
   1888 C(5)       30.2145    7.6000   16.8563 C.ar      1 UNK         0.0000 
   1889 C(6)       31.2923    6.7400   16.7014 C.ar      1 UNK         0.0000 
   1890 C(7)       33.5966    4.4508   18.3737 C.2       1 UNK         0.0000 
   1891 C(8)       34.7201    3.6493   17.7727 C.3       1 UNK         0.0000 
   1892 H(1)       31.2376    5.2320   19.7422 H         1 UNK         0.0000 
   1893 H(2)       29.3347    6.7508   20.0238 H         1 UNK         0.0000 
   1894 H(3)       29.9215    8.2558   16.0457 H         1 UNK         0.0000 
   1895 H(4)       31.8392    6.7236   15.7668 H         1 UNK         0.0000 
   1896 H(5)       28.1421    8.8278   17.4335 H         1 UNK         0.0000 
   1897 H(6)       33.0478    4.9580   16.5147 H         1 UNK         0.0000 
   1898 H(7)       34.5016    2.6188   17.8820 H         1 UNK         0.0000 
   1899 H(8)       34.8718    3.8565   16.7453 H         1 UNK         0.0000 
   1900 H(9)       35.6006    3.8137   18.3375 H         1 UNK         0.0000 
   1901 O(1)       27.9937   13.0597   19.4795 O.3       1 UNK         0.0000 
   1902 O(2)       23.0198    9.1152   18.1527 O.2       1 UNK         0.0000 
   1903 N(1)       23.6709    9.6395   20.2644 N.am      1 UNK         0.0000 
   1904 C(1)       24.7782   10.4794   20.0104 C.ar      1 UNK         0.0000 
   1905 C(2)       25.5010   10.4813   18.8176 C.ar      1 UNK         0.0000 
   1906 C(3)       26.5787   11.3480   18.6609 C.ar      1 UNK         0.0000 
   1907 C(4)       26.9490   12.2102   19.6898 C.ar      1 UNK         0.0000 
   1908 C(5)       26.2456   12.1865   20.8935 C.ar      1 UNK         0.0000 
   1909 C(6)       25.1678   11.3265   21.0484 C.ar      1 UNK         0.0000 
   1910 C(7)       22.8635    9.0373   19.3762 C.2       1 UNK         0.0000 
   1911 C(8)       21.7401    8.2358   19.9772 C.3       1 UNK         0.0000 
   1912 H(1)       25.2226    9.8185   18.0076 H         1 UNK         0.0000 
   1913 H(2)       27.1254   11.3373   17.7261 H         1 UNK         0.0000 
   1914 H(3)       26.5386   12.8423   21.7041 H         1 UNK         0.0000 
   1915 H(4)       24.6209   11.3101   21.9831 H         1 UNK         0.0000 
   1916 H(5)       28.3181   13.4143   20.3163 H         1 UNK         0.0000 
   1917 H(6)       23.4124    9.5445   21.2352 H         1 UNK         0.0000 
   1918 H(7)       21.9585    7.2053   19.8678 H         1 UNK         0.0000 
   1919 H(8)       21.5883    8.4430   21.0046 H         1 UNK         0.0000 
   1920 H(9)       20.8595    8.4002   19.4124 H         1 UNK         0.0000 
   1921 O(1)       32.3217   19.0458    8.9648 O.3       1 UNK         0.0000 
   1922 O(2)       27.3478   22.9903    7.6380 O.2       1 UNK         0.0000 
   1923 N(1)       27.9988   22.4660    9.7497 N.am      1 UNK         0.0000 
   1924 C(1)       29.1061   21.6261    9.4956 C.ar      1 UNK         0.0000 
   1925 C(2)       29.8290   21.6242    8.3028 C.ar      1 UNK         0.0000 
   1926 C(3)       30.9066   20.7575    8.1462 C.ar      1 UNK         0.0000 
   1927 C(4)       31.2770   19.8953    9.1751 C.ar      1 UNK         0.0000 
   1928 C(5)       30.5736   19.9190   10.3788 C.ar      1 UNK         0.0000 
   1929 C(6)       29.4958   20.7790   10.5337 C.ar      1 UNK         0.0000 
   1930 C(7)       27.1915   23.0682    8.8614 C.2       1 UNK         0.0000 
   1931 C(8)       26.0680   23.8697    9.4624 C.3       1 UNK         0.0000 
   1932 H(1)       29.5505   22.2870    7.4929 H         1 UNK         0.0000 
   1933 H(2)       31.4534   20.7682    7.2113 H         1 UNK         0.0000 
   1934 H(3)       30.8666   19.2632   11.1894 H         1 UNK         0.0000 
   1935 H(4)       28.9489   20.7954   11.4683 H         1 UNK         0.0000 
   1936 H(5)       32.6460   18.6912    9.8016 H         1 UNK         0.0000 
   1937 H(6)       27.7403   22.5611   10.7204 H         1 UNK         0.0000 
   1938 H(7)       26.2865   24.9002    9.3531 H         1 UNK         0.0000 
   1939 H(8)       25.9163   23.6625   10.4898 H         1 UNK         0.0000 
   1940 H(9)       25.1875   23.7053    8.8976 H         1 UNK         0.0000 
   1941 O(1)       22.1931   14.4593   14.7654 O.3       1 UNK         0.0000 
   1942 O(2)       27.1670   18.4038   16.0922 O.2       1 UNK         0.0000 
   1943 N(1)       26.5159   17.8795   13.9805 N.am      1 UNK         0.0000 
   1944 C(1)       25.4086   17.0396   14.2346 C.ar      1 UNK         0.0000 
   1945 C(2)       24.6858   17.0377   15.4274 C.ar      1 UNK         0.0000 
   1946 C(3)       23.6081   16.1710   15.5840 C.ar      1 UNK         0.0000 
   1947 C(4)       23.2378   15.3088   14.5551 C.ar      1 UNK         0.0000 
   1948 C(5)       23.9411   15.3325   13.3514 C.ar      1 UNK         0.0000 
   1949 C(6)       25.0190   16.1925   13.1965 C.ar      1 UNK         0.0000 
   1950 C(7)       27.3233   18.4817   14.8687 C.2       1 UNK         0.0000 
   1951 C(8)       28.4467   19.2832   14.2678 C.3       1 UNK         0.0000 
   1952 H(1)       24.9642   17.7005   16.2373 H         1 UNK         0.0000 
   1953 H(2)       23.0613   16.1817   16.5188 H         1 UNK         0.0000 
   1954 H(3)       23.6482   14.6767   12.5408 H         1 UNK         0.0000 
   1955 H(4)       25.5659   16.2089   12.2618 H         1 UNK         0.0000 
   1956 H(5)       21.8687   14.1047   13.9286 H         1 UNK         0.0000 
   1957 H(6)       26.7744   17.9746   13.0098 H         1 UNK         0.0000 
   1958 H(7)       28.2283   20.3137   14.3771 H         1 UNK         0.0000 
   1959 H(8)       28.5985   19.0760   13.2404 H         1 UNK         0.0000 
   1960 H(9)       29.3272   19.1188   14.8326 H         1 UNK         0.0000 
   1961 O(1)       26.5210   26.8192    4.2507 O.3       1 UNK         0.0000 
   1962 O(2)       31.4949   22.8747    5.5774 O.2       1 UNK         0.0000 
   1963 N(1)       30.8439   23.3990    3.4657 N.am      1 UNK         0.0000 
   1964 C(1)       29.7366   24.2389    3.7198 C.ar      1 UNK         0.0000 
   1965 C(2)       29.0137   24.2408    4.9126 C.ar      1 UNK         0.0000 
   1966 C(3)       27.9361   25.1075    5.0693 C.ar      1 UNK         0.0000 
   1967 C(4)       27.5657   25.9697    4.0404 C.ar      1 UNK         0.0000 
   1968 C(5)       28.2691   25.9460    2.8367 C.ar      1 UNK         0.0000 
   1969 C(6)       29.3469   25.0860    2.6817 C.ar      1 UNK         0.0000 
   1970 C(7)       31.6512   22.7968    4.3540 C.2       1 UNK         0.0000 
   1971 C(8)       32.7747   21.9953    3.7530 C.3       1 UNK         0.0000 
   1972 H(1)       29.2922   23.5780    5.7226 H         1 UNK         0.0000 
   1973 H(2)       27.3893   25.0968    6.0041 H         1 UNK         0.0000 
   1974 H(3)       27.9761   26.6018    2.0261 H         1 UNK         0.0000 
   1975 H(4)       29.8938   25.0696    1.7471 H         1 UNK         0.0000 
   1976 H(5)       26.1967   27.1738    3.4139 H         1 UNK         0.0000 
   1977 H(6)       31.1024   23.3040    2.4950 H         1 UNK         0.0000 
   1978 H(7)       32.5562   20.9648    3.8623 H         1 UNK         0.0000 
   1979 H(8)       32.9264   22.2025    2.7256 H         1 UNK         0.0000 
   1980 H(9)       33.6552   22.1597    4.3178 H         1 UNK         0.0000 
   1981 O(1)       26.0483   22.2327    5.4598 O.3       1 UNK         0.0000 
   1982 O(2)       21.0744   18.2882    4.1331 O.2       1 UNK         0.0000 
   1983 N(1)       21.7255   18.8125    6.2448 N.am      1 UNK         0.0000 
   1984 C(1)       22.8328   19.6524    5.9907 C.ar      1 UNK         0.0000 
   1985 C(2)       23.5556   19.6543    4.7979 C.ar      1 UNK         0.0000 
   1986 C(3)       24.6333   20.5210    4.6412 C.ar      1 UNK         0.0000 
   1987 C(4)       25.0036   21.3832    5.6701 C.ar      1 UNK         0.0000 
   1988 C(5)       24.3003   21.3595    6.8738 C.ar      1 UNK         0.0000 
   1989 C(6)       23.2224   20.4995    7.0288 C.ar      1 UNK         0.0000 
   1990 C(7)       20.9181   18.2103    5.3565 C.2       1 UNK         0.0000 
   1991 C(8)       19.7947   17.4088    5.9575 C.3       1 UNK         0.0000 
   1992 H(1)       23.2772   18.9915    3.9879 H         1 UNK         0.0000 
   1993 H(2)       25.1801   20.5103    3.7064 H         1 UNK         0.0000 
   1994 H(3)       24.5932   22.0153    7.6844 H         1 UNK         0.0000 
   1995 H(4)       22.6755   20.4831    7.9634 H         1 UNK         0.0000 
   1996 H(5)       26.3727   22.5873    6.2966 H         1 UNK         0.0000 
   1997 H(6)       21.4670   18.7175    7.2155 H         1 UNK         0.0000 
   1998 H(7)       20.0131   16.3783    5.8482 H         1 UNK         0.0000 
   1999 H(8)       19.6429   17.6160    6.9849 H         1 UNK         0.0000 
   2000 H(9)       18.9141   17.5732    5.3927 H         1 UNK         0.0000 
   2001 O(1)       33.2944   19.0458   15.9746 O.3       1 UNK         0.0000 
   2002 O(2)       28.3205   22.9903   14.6478 O.2       1 UNK         0.0000 
   2003 N(1)       28.9715   22.4660   16.7595 N.am      1 UNK         0.0000 
   2004 C(1)       30.0788   21.6261   16.5055 C.ar      1 UNK         0.0000 
   2005 C(2)       30.8017   21.6242   15.3126 C.ar      1 UNK         0.0000 
   2006 C(3)       31.8793   20.7575   15.1560 C.ar      1 UNK         0.0000 
   2007 C(4)       32.2496   19.8953   16.1849 C.ar      1 UNK         0.0000 
   2008 C(5)       31.5463   19.9190   17.3886 C.ar      1 UNK         0.0000 
   2009 C(6)       30.4685   20.7790   17.5435 C.ar      1 UNK         0.0000 
   2010 C(7)       28.1642   23.0682   15.8713 C.2       1 UNK         0.0000 
   2011 C(8)       27.0407   23.8697   16.4723 C.3       1 UNK         0.0000 
   2012 H(1)       30.5232   22.2870   14.5027 H         1 UNK         0.0000 
   2013 H(2)       32.4261   20.7682   14.2212 H         1 UNK         0.0000 
   2014 H(3)       31.8392   19.2632   18.1992 H         1 UNK         0.0000 
   2015 H(4)       29.9216   20.7954   18.4782 H         1 UNK         0.0000 
   2016 H(5)       33.6187   18.6912   16.8114 H         1 UNK         0.0000 
   2017 H(6)       28.7130   22.5611   17.7302 H         1 UNK         0.0000 
   2018 H(7)       27.2592   24.9002   16.3629 H         1 UNK         0.0000 
   2019 H(8)       26.8889   23.6625   17.4996 H         1 UNK         0.0000 
   2020 H(9)       26.1602   23.7053   15.9074 H         1 UNK         0.0000 
   2021 O(1)       34.7398   14.4593   21.7753 O.3       1 UNK         0.0000 
   2022 O(2)       39.7137   18.4038   23.1020 O.2       1 UNK         0.0000 
   2023 N(1)       39.0626   17.8795   20.9903 N.am      1 UNK         0.0000 
   2024 C(1)       37.9553   17.0396   21.2444 C.ar      1 UNK         0.0000 
   2025 C(2)       37.2325   17.0377   22.4372 C.ar      1 UNK         0.0000 
   2026 C(3)       36.1548   16.1710   22.5939 C.ar      1 UNK         0.0000 
   2027 C(4)       35.7845   15.3088   21.5650 C.ar      1 UNK         0.0000 
   2028 C(5)       36.4878   15.3325   20.3613 C.ar      1 UNK         0.0000 
   2029 C(6)       37.5656   16.1925   20.2063 C.ar      1 UNK         0.0000 
   2030 C(7)       39.8700   18.4817   21.8786 C.2       1 UNK         0.0000 
   2031 C(8)       40.9934   19.2832   21.2776 C.3       1 UNK         0.0000 
   2032 H(1)       37.5109   17.7005   23.2472 H         1 UNK         0.0000 
   2033 H(2)       35.6080   16.1817   23.5287 H         1 UNK         0.0000 
   2034 H(3)       36.1949   14.6767   19.5507 H         1 UNK         0.0000 
   2035 H(4)       38.1126   16.2089   19.2717 H         1 UNK         0.0000 
   2036 H(5)       34.4154   14.1047   20.9385 H         1 UNK         0.0000 
   2037 H(6)       39.3211   17.9746   20.0196 H         1 UNK         0.0000 
   2038 H(7)       40.7750   20.3137   21.3869 H         1 UNK         0.0000 
   2039 H(8)       41.1452   19.0760   20.2502 H         1 UNK         0.0000 
   2040 H(9)       41.8739   19.1188   21.8424 H         1 UNK         0.0000 
   2041 O(1)       27.4937   26.8192   11.2605 O.3       1 UNK         0.0000 
   2042 O(2)       32.4676   22.8747   12.5873 O.2       1 UNK         0.0000 
   2043 N(1)       31.8166   23.3990   10.4756 N.am      1 UNK         0.0000 
   2044 C(1)       30.7092   24.2389   10.7296 C.ar      1 UNK         0.0000 
   2045 C(2)       29.9864   24.2408   11.9225 C.ar      1 UNK         0.0000 
   2046 C(3)       28.9087   25.1075   12.0791 C.ar      1 UNK         0.0000 
   2047 C(4)       28.5384   25.9697   11.0502 C.ar      1 UNK         0.0000 
   2048 C(5)       29.2418   25.9460    9.8465 C.ar      1 UNK         0.0000 
   2049 C(6)       30.3196   25.0860    9.6916 C.ar      1 UNK         0.0000 
   2050 C(7)       32.6239   22.7968   11.3638 C.2       1 UNK         0.0000 
   2051 C(8)       33.7474   21.9953   10.7628 C.3       1 UNK         0.0000 
   2052 H(1)       30.2649   23.5780   12.7324 H         1 UNK         0.0000 
   2053 H(2)       28.3620   25.0968   13.0139 H         1 UNK         0.0000 
   2054 H(3)       28.9488   26.6018    9.0359 H         1 UNK         0.0000 
   2055 H(4)       30.8665   25.0696    8.7569 H         1 UNK         0.0000 
   2056 H(5)       27.1694   27.1738   10.4237 H         1 UNK         0.0000 
   2057 H(6)       32.0751   23.3040    9.5049 H         1 UNK         0.0000 
   2058 H(7)       33.5289   20.9648   10.8722 H         1 UNK         0.0000 
   2059 H(8)       33.8991   22.2025    9.7355 H         1 UNK         0.0000 
   2060 H(9)       34.6279   22.1597   11.3277 H         1 UNK         0.0000 
   2061 O(1)       38.5950   22.2327   12.4697 O.3       1 UNK         0.0000 
   2062 O(2)       33.6211   18.2882   11.1429 O.2       1 UNK         0.0000 
   2063 N(1)       34.2722   18.8125   13.2546 N.am      1 UNK         0.0000 
   2064 C(1)       35.3795   19.6524   13.0005 C.ar      1 UNK         0.0000 
   2065 C(2)       36.1023   19.6543   11.8077 C.ar      1 UNK         0.0000 
   2066 C(3)       37.1800   20.5210   11.6511 C.ar      1 UNK         0.0000 
   2067 C(4)       37.5503   21.3832   12.6800 C.ar      1 UNK         0.0000 
   2068 C(5)       36.8469   21.3595   13.8837 C.ar      1 UNK         0.0000 
   2069 C(6)       35.7691   20.4995   14.0386 C.ar      1 UNK         0.0000 
   2070 C(7)       33.4648   18.2103   12.3664 C.2       1 UNK         0.0000 
   2071 C(8)       32.3414   17.4088   12.9673 C.3       1 UNK         0.0000 
   2072 H(1)       35.8239   18.9915   10.9978 H         1 UNK         0.0000 
   2073 H(2)       37.7268   20.5103   10.7162 H         1 UNK         0.0000 
   2074 H(3)       37.1399   22.0153   14.6943 H         1 UNK         0.0000 
   2075 H(4)       35.2222   20.4831   14.9733 H         1 UNK         0.0000 
   2076 H(5)       38.9194   22.5873   13.3065 H         1 UNK         0.0000 
   2077 H(6)       34.0137   18.7175   14.2253 H         1 UNK         0.0000 
   2078 H(7)       32.5598   16.3783   12.8580 H         1 UNK         0.0000 
   2079 H(8)       32.1896   17.6160   13.9947 H         1 UNK         0.0000 
   2080 H(9)       31.4608   17.5732   12.4025 H         1 UNK         0.0000 
   2081 O(1)       34.2671   19.0458    1.7534 O.3       1 UNK         0.0000 
   2082 O(2)       29.2932   22.9903    0.4267 O.2       1 UNK         0.0000 
   2083 N(1)       29.9442   22.4660    2.5384 N.am      1 UNK         0.0000 
   2084 C(1)       31.0515   21.6261    2.2843 C.ar      1 UNK         0.0000 
   2085 C(2)       31.7744   21.6242    1.0915 C.ar      1 UNK         0.0000 
   2086 C(3)       32.8520   20.7575    0.9348 C.ar      1 UNK         0.0000 
   2087 C(4)       33.2223   19.8953    1.9637 C.ar      1 UNK         0.0000 
   2088 C(5)       32.5190   19.9190    3.1674 C.ar      1 UNK         0.0000 
   2089 C(6)       31.4412   20.7790    3.3223 C.ar      1 UNK         0.0000 
   2090 C(7)       29.1369   23.0682    1.6501 C.2       1 UNK         0.0000 
   2091 C(8)       28.0134   23.8697    2.2511 C.3       1 UNK         0.0000 
   2092 H(1)       31.4959   22.2870    0.2815 H         1 UNK         0.0000 
   2093 H(2)       33.3988   20.7682    0.0000 H         1 UNK         0.0000 
   2094 H(3)       32.8119   19.2632    3.9780 H         1 UNK         0.0000 
   2095 H(4)       30.8943   20.7954    4.2570 H         1 UNK         0.0000 
   2096 H(5)       34.5914   18.6912    2.5902 H         1 UNK         0.0000 
   2097 H(6)       29.6857   22.5611    3.5091 H         1 UNK         0.0000 
   2098 H(7)       28.2319   24.9002    2.1418 H         1 UNK         0.0000 
   2099 H(8)       27.8616   23.6625    3.2785 H         1 UNK         0.0000 
   2100 H(9)       27.1329   23.7053    1.6863 H         1 UNK         0.0000 
   2101 O(1)       21.2204   14.4593    7.7556 O.3       1 UNK         0.0000 
   2102 O(2)       26.1943   18.4038    9.0824 O.2       1 UNK         0.0000 
   2103 N(1)       25.5432   17.8795    6.9707 N.am      1 UNK         0.0000 
   2104 C(1)       24.4359   17.0396    7.2247 C.ar      1 UNK         0.0000 
   2105 C(2)       23.7131   17.0377    8.4175 C.ar      1 UNK         0.0000 
   2106 C(3)       22.6354   16.1710    8.5742 C.ar      1 UNK         0.0000 
   2107 C(4)       22.2651   15.3088    7.5453 C.ar      1 UNK         0.0000 
   2108 C(5)       22.9684   15.3325    6.3416 C.ar      1 UNK         0.0000 
   2109 C(6)       24.0463   16.1925    6.1867 C.ar      1 UNK         0.0000 
   2110 C(7)       26.3506   18.4817    7.8589 C.2       1 UNK         0.0000 
   2111 C(8)       27.4740   19.2832    7.2579 C.3       1 UNK         0.0000 
   2112 H(1)       23.9915   17.7005    9.2275 H         1 UNK         0.0000 
   2113 H(2)       22.0886   16.1817    9.5090 H         1 UNK         0.0000 
   2114 H(3)       22.6755   14.6767    5.5310 H         1 UNK         0.0000 
   2115 H(4)       24.5932   16.2089    5.2520 H         1 UNK         0.0000 
   2116 H(5)       20.8960   14.1047    6.9188 H         1 UNK         0.0000 
   2117 H(6)       25.8017   17.9746    5.9999 H         1 UNK         0.0000 
   2118 H(7)       27.2556   20.3137    7.3672 H         1 UNK         0.0000 
   2119 H(8)       27.6258   19.0760    6.2305 H         1 UNK         0.0000 
   2120 H(9)       28.3546   19.1188    7.8227 H         1 UNK         0.0000 
   2121 O(1)       28.4664   17.6462   18.2703 O.3       1 UNK         0.0000 
   2122 O(2)       33.4403   13.7017   19.5971 O.2       1 UNK         0.0000 
   2123 N(1)       32.7893   14.2260   17.4854 N.am      1 UNK         0.0000 
   2124 C(1)       31.6819   15.0659   17.7395 C.ar      1 UNK         0.0000 
   2125 C(2)       30.9591   15.0678   18.9323 C.ar      1 UNK         0.0000 
   2126 C(3)       29.8814   15.9345   19.0889 C.ar      1 UNK         0.0000 
   2127 C(4)       29.5111   16.7967   18.0600 C.ar      1 UNK         0.0000 
   2128 C(5)       30.2145   16.7730   16.8563 C.ar      1 UNK         0.0000 
   2129 C(6)       31.2923   15.9130   16.7014 C.ar      1 UNK         0.0000 
   2130 C(7)       33.5966   13.6238   18.3737 C.2       1 UNK         0.0000 
   2131 C(8)       34.7201   12.8223   17.7727 C.3       1 UNK         0.0000 
   2132 H(1)       31.2376   14.4050   19.7422 H         1 UNK         0.0000 
   2133 H(2)       29.3347   15.9238   20.0238 H         1 UNK         0.0000 
   2134 H(3)       29.9215   17.4288   16.0457 H         1 UNK         0.0000 
   2135 H(4)       31.8392   15.8966   15.7668 H         1 UNK         0.0000 
   2136 H(5)       28.1421   18.0008   17.4335 H         1 UNK         0.0000 
   2137 H(6)       33.0478   14.1310   16.5147 H         1 UNK         0.0000 
   2138 H(7)       34.5016   11.7918   17.8820 H         1 UNK         0.0000 
   2139 H(8)       34.8718   13.0295   16.7453 H         1 UNK         0.0000 
   2140 H(9)       35.6006   12.9867   18.3375 H         1 UNK         0.0000 
   2141 O(1)       27.9937   22.2327   19.4795 O.3       1 UNK         0.0000 
   2142 O(2)       23.0198   18.2882   18.1527 O.2       1 UNK         0.0000 
   2143 N(1)       23.6709   18.8125   20.2644 N.am      1 UNK         0.0000 
   2144 C(1)       24.7782   19.6524   20.0104 C.ar      1 UNK         0.0000 
   2145 C(2)       25.5010   19.6543   18.8176 C.ar      1 UNK         0.0000 
   2146 C(3)       26.5787   20.5210   18.6609 C.ar      1 UNK         0.0000 
   2147 C(4)       26.9490   21.3832   19.6898 C.ar      1 UNK         0.0000 
   2148 C(5)       26.2456   21.3595   20.8935 C.ar      1 UNK         0.0000 
   2149 C(6)       25.1678   20.4995   21.0484 C.ar      1 UNK         0.0000 
   2150 C(7)       22.8635   18.2103   19.3762 C.2       1 UNK         0.0000 
   2151 C(8)       21.7401   17.4088   19.9772 C.3       1 UNK         0.0000 
   2152 H(1)       25.2226   18.9915   18.0076 H         1 UNK         0.0000 
   2153 H(2)       27.1254   20.5103   17.7261 H         1 UNK         0.0000 
   2154 H(3)       26.5386   22.0153   21.7041 H         1 UNK         0.0000 
   2155 H(4)       24.6209   20.4831   21.9831 H         1 UNK         0.0000 
   2156 H(5)       28.3181   22.5873   20.3163 H         1 UNK         0.0000 
   2157 H(6)       23.4124   18.7175   21.2352 H         1 UNK         0.0000 
   2158 H(7)       21.9585   16.3783   19.8678 H         1 UNK         0.0000 
   2159 H(8)       21.5883   17.6160   21.0046 H         1 UNK         0.0000 
   2160 H(9)       20.8595   17.5732   19.4124 H         1 UNK         0.0000 
@<TRIPOS>BOND
     1    1   16 1    
     2    1    7 1    
     3    2   10 2    
     4    3   17 1    
     5    3   10 am   BACKBONE|DICT|INTERRES
     6    3    4 1    
     7    4    5 ar   
     8    4    9 ar   
     9    5   12 1    
    10    5    6 ar   
    11    6    7 ar   
    12    6   13 1    
    13    7    8 ar   
    14    8    9 ar   
    15    8   14 1    
    16    9   15 1    
    17   10   11 1    
    18   11   19 1    
    19   11   18 1    
    20   11   20 1    
    21   21   36 1    
    22   21   27 1    
    23   22   30 2    
    24   23   24 1    
    25   23   37 1    
    26   23   30 am   BACKBONE|DICT|INTERRES
    27   24   25 ar   
    28   24   29 ar   
    29   25   26 ar   
    30   25   32 1    
    31   26   33 1    
    32   26   27 ar   
    33   27   28 ar   
    34   28   34 1    
    35   28   29 ar   
    36   29   35 1    
    37   30   31 1    
    38   31   39 1    
    39   31   38 1    
    40   31   40 1    
    41   41   56 1    
    42   41   47 1    
    43   42   50 2    
    44   43   44 1    
    45   43   57 1    
    46   43   50 am   BACKBONE|DICT|INTERRES
    47   44   49 ar   
    48   44   45 ar   
    49   45   46 ar   
    50   45   52 1    
    51   46   47 ar   
    52   46   53 1    
    53   47   48 ar   
    54   48   49 ar   
    55   48   54 1    
    56   49   55 1    
    57   50   51 1    
    58   51   58 1    
    59   51   60 1    
    60   51   59 1    
    61   61   67 1    
    62   61   76 1    
    63   62   70 2    
    64   63   70 am   BACKBONE|DICT|INTERRES
    65   63   64 1    
    66   63   77 1    
    67   64   69 ar   
    68   64   65 ar   
    69   65   72 1    
    70   65   66 ar   
    71   66   73 1    
    72   66   67 ar   
    73   67   68 ar   
    74   68   74 1    
    75   68   69 ar   
    76   69   75 1    
    77   70   71 1    
    78   71   78 1    
    79   71   80 1    
    80   71   79 1    
    81   81   96 1    
    82   81   87 1    
    83   82   90 2    
    84   83   97 1    
    85   83   90 am   BACKBONE|DICT|INTERRES
    86   83   84 1    
    87   84   85 ar   
    88   84   89 ar   
    89   85   92 1    
    90   85   86 ar   
    91   86   87 ar   
    92   86   93 1    
    93   87   88 ar   
    94   88   89 ar   
    95   88   94 1    
    96   89   95 1    
    97   90   91 1    
    98   91   99 1    
    99   91   98 1    
   100   91  100 1    
   101  101  116 1    
   102  101  107 1    
   103  102  110 2    
   104  103  104 1    
   105  103  117 1    
   106  103  110 am   BACKBONE|DICT|INTERRES
   107  104  105 ar   
   108  104  109 ar   
   109  105  106 ar   
   110  105  112 1    
   111  106  113 1    
   112  106  107 ar   
   113  107  108 ar   
   114  108  114 1    
   115  108  109 ar   
   116  109  115 1    
   117  110  111 1    
   118  111  119 1    
   119  111  118 1    
   120  111  120 1    
   121  121  136 1    
   122  121  127 1    
   123  122  130 2    
   124  123  124 1    
   125  123  137 1    
   126  123  130 am   BACKBONE|DICT|INTERRES
   127  124  129 ar   
   128  124  125 ar   
   129  125  126 ar   
   130  125  132 1    
   131  126  127 ar   
   132  126  133 1    
   133  127  128 ar   
   134  128  129 ar   
   135  128  134 1    
   136  129  135 1    
   137  130  131 1    
   138  131  138 1    
   139  131  140 1    
   140  131  139 1    
   141  141  147 1    
   142  141  156 1    
   143  142  150 2    
   144  143  150 am   BACKBONE|DICT|INTERRES
   145  143  144 1    
   146  143  157 1    
   147  144  149 ar   
   148  144  145 ar   
   149  145  152 1    
   150  145  146 ar   
   151  146  153 1    
   152  146  147 ar   
   153  147  148 ar   
   154  148  154 1    
   155  148  149 ar   
   156  149  155 1    
   157  150  151 1    
   158  151  158 1    
   159  151  160 1    
   160  151  159 1    
   161  161  176 1    
   162  161  167 1    
   163  162  170 2    
   164  163  177 1    
   165  163  170 am   BACKBONE|DICT|INTERRES
   166  163  164 1    
   167  164  165 ar   
   168  164  169 ar   
   169  165  172 1    
   170  165  166 ar   
   171  166  167 ar   
   172  166  173 1    
   173  167  168 ar   
   174  168  169 ar   
   175  168  174 1    
   176  169  175 1    
   177  170  171 1    
   178  171  179 1    
   179  171  178 1    
   180  171  180 1    
   181  181  196 1    
   182  181  187 1    
   183  182  190 2    
   184  183  184 1    
   185  183  197 1    
   186  183  190 am   BACKBONE|DICT|INTERRES
   187  184  185 ar   
   188  184  189 ar   
   189  185  186 ar   
   190  185  192 1    
   191  186  193 1    
   192  186  187 ar   
   193  187  188 ar   
   194  188  194 1    
   195  188  189 ar   
   196  189  195 1    
   197  190  191 1    
   198  191  199 1    
   199  191  198 1    
   200  191  200 1    
   201  201  216 1    
   202  201  207 1    
   203  202  210 2    
   204  203  204 1    
   205  203  217 1    
   206  203  210 am   BACKBONE|DICT|INTERRES
   207  204  209 ar   
   208  204  205 ar   
   209  205  206 ar   
   210  205  212 1    
   211  206  207 ar   
   212  206  213 1    
   213  207  208 ar   
   214  208  209 ar   
   215  208  214 1    
   216  209  215 1    
   217  210  211 1    
   218  211  218 1    
   219  211  220 1    
   220  211  219 1    
   221  221  227 1    
   222  221  236 1    
   223  222  230 2    
   224  223  230 am   BACKBONE|DICT|INTERRES
   225  223  224 1    
   226  223  237 1    
   227  224  229 ar   
   228  224  225 ar   
   229  225  232 1    
   230  225  226 ar   
   231  226  233 1    
   232  226  227 ar   
   233  227  228 ar   
   234  228  234 1    
   235  228  229 ar   
   236  229  235 1    
   237  230  231 1    
   238  231  238 1    
   239  231  240 1    
   240  231  239 1    
   241  241  256 1    
   242  241  247 1    
   243  242  250 2    
   244  243  257 1    
   245  243  250 am   BACKBONE|DICT|INTERRES
   246  243  244 1    
   247  244  245 ar   
   248  244  249 ar   
   249  245  252 1    
   250  245  246 ar   
   251  246  247 ar   
   252  246  253 1    
   253  247  248 ar   
   254  248  249 ar   
   255  248  254 1    
   256  249  255 1    
   257  250  251 1    
   258  251  259 1    
   259  251  258 1    
   260  251  260 1    
   261  261  276 1    
   262  261  267 1    
   263  262  270 2    
   264  263  264 1    
   265  263  277 1    
   266  263  270 am   BACKBONE|DICT|INTERRES
   267  264  265 ar   
   268  264  269 ar   
   269  265  266 ar   
   270  265  272 1    
   271  266  273 1    
   272  266  267 ar   
   273  267  268 ar   
   274  268  274 1    
   275  268  269 ar   
   276  269  275 1    
   277  270  271 1    
   278  271  279 1    
   279  271  278 1    
   280  271  280 1    
   281  281  296 1    
   282  281  287 1    
   283  282  290 2    
   284  283  284 1    
   285  283  297 1    
   286  283  290 am   BACKBONE|DICT|INTERRES
   287  284  289 ar   
   288  284  285 ar   
   289  285  286 ar   
   290  285  292 1    
   291  286  287 ar   
   292  286  293 1    
   293  287  288 ar   
   294  288  289 ar   
   295  288  294 1    
   296  289  295 1    
   297  290  291 1    
   298  291  298 1    
   299  291  300 1    
   300  291  299 1    
   301  301  307 1    
   302  301  316 1    
   303  302  310 2    
   304  303  310 am   BACKBONE|DICT|INTERRES
   305  303  304 1    
   306  303  317 1    
   307  304  309 ar   
   308  304  305 ar   
   309  305  312 1    
   310  305  306 ar   
   311  306  313 1    
   312  306  307 ar   
   313  307  308 ar   
   314  308  314 1    
   315  308  309 ar   
   316  309  315 1    
   317  310  311 1    
   318  311  318 1    
   319  311  320 1    
   320  311  319 1    
   321  321  336 1    
   322  321  327 1    
   323  322  330 2    
   324  323  337 1    
   325  323  330 am   BACKBONE|DICT|INTERRES
   326  323  324 1    
   327  324  325 ar   
   328  324  329 ar   
   329  325  332 1    
   330  325  326 ar   
   331  326  327 ar   
   332  326  333 1    
   333  327  328 ar   
   334  328  329 ar   
   335  328  334 1    
   336  329  335 1    
   337  330  331 1    
   338  331  339 1    
   339  331  338 1    
   340  331  340 1    
   341  341  356 1    
   342  341  347 1    
   343  342  350 2    
   344  343  344 1    
   345  343  357 1    
   346  343  350 am   BACKBONE|DICT|INTERRES
   347  344  345 ar   
   348  344  349 ar   
   349  345  346 ar   
   350  345  352 1    
   351  346  353 1    
   352  346  347 ar   
   353  347  348 ar   
   354  348  354 1    
   355  348  349 ar   
   356  349  355 1    
   357  350  351 1    
   358  351  359 1    
   359  351  358 1    
   360  351  360 1    
   361  361  376 1    
   362  361  367 1    
   363  362  370 2    
   364  363  364 1    
   365  363  377 1    
   366  363  370 am   BACKBONE|DICT|INTERRES
   367  364  369 ar   
   368  364  365 ar   
   369  365  366 ar   
   370  365  372 1    
   371  366  367 ar   
   372  366  373 1    
   373  367  368 ar   
   374  368  369 ar   
   375  368  374 1    
   376  369  375 1    
   377  370  371 1    
   378  371  378 1    
   379  371  380 1    
   380  371  379 1    
   381  381  387 1    
   382  381  396 1    
   383  382  390 2    
   384  383  390 am   BACKBONE|DICT|INTERRES
   385  383  384 1    
   386  383  397 1    
   387  384  389 ar   
   388  384  385 ar   
   389  385  392 1    
   390  385  386 ar   
   391  386  393 1    
   392  386  387 ar   
   393  387  388 ar   
   394  388  394 1    
   395  388  389 ar   
   396  389  395 1    
   397  390  391 1    
   398  391  398 1    
   399  391  400 1    
   400  391  399 1    
   401  401  416 1    
   402  401  407 1    
   403  402  410 2    
   404  403  417 1    
   405  403  410 am   BACKBONE|DICT|INTERRES
   406  403  404 1    
   407  404  405 ar   
   408  404  409 ar   
   409  405  412 1    
   410  405  406 ar   
   411  406  407 ar   
   412  406  413 1    
   413  407  408 ar   
   414  408  409 ar   
   415  408  414 1    
   416  409  415 1    
   417  410  411 1    
   418  411  419 1    
   419  411  418 1    
   420  411  420 1    
   421  421  436 1    
   422  421  427 1    
   423  422  430 2    
   424  423  424 1    
   425  423  437 1    
   426  423  430 am   BACKBONE|DICT|INTERRES
   427  424  425 ar   
   428  424  429 ar   
   429  425  426 ar   
   430  425  432 1    
   431  426  433 1    
   432  426  427 ar   
   433  427  428 ar   
   434  428  434 1    
   435  428  429 ar   
   436  429  435 1    
   437  430  431 1    
   438  431  439 1    
   439  431  438 1    
   440  431  440 1    
   441  441  456 1    
   442  441  447 1    
   443  442  450 2    
   444  443  444 1    
   445  443  457 1    
   446  443  450 am   BACKBONE|DICT|INTERRES
   447  444  449 ar   
   448  444  445 ar   
   449  445  446 ar   
   450  445  452 1    
   451  446  447 ar   
   452  446  453 1    
   453  447  448 ar   
   454  448  449 ar   
   455  448  454 1    
   456  449  455 1    
   457  450  451 1    
   458  451  458 1    
   459  451  460 1    
   460  451  459 1    
   461  461  467 1    
   462  461  476 1    
   463  462  470 2    
   464  463  470 am   BACKBONE|DICT|INTERRES
   465  463  464 1    
   466  463  477 1    
   467  464  469 ar   
   468  464  465 ar   
   469  465  472 1    
   470  465  466 ar   
   471  466  473 1    
   472  466  467 ar   
   473  467  468 ar   
   474  468  474 1    
   475  468  469 ar   
   476  469  475 1    
   477  470  471 1    
   478  471  478 1    
   479  471  480 1    
   480  471  479 1    
   481  481  496 1    
   482  481  487 1    
   483  482  490 2    
   484  483  497 1    
   485  483  490 am   BACKBONE|DICT|INTERRES
   486  483  484 1    
   487  484  485 ar   
   488  484  489 ar   
   489  485  492 1    
   490  485  486 ar   
   491  486  487 ar   
   492  486  493 1    
   493  487  488 ar   
   494  488  489 ar   
   495  488  494 1    
   496  489  495 1    
   497  490  491 1    
   498  491  499 1    
   499  491  498 1    
   500  491  500 1    
   501  501  516 1    
   502  501  507 1    
   503  502  510 2    
   504  503  504 1    
   505  503  517 1    
   506  503  510 am   BACKBONE|DICT|INTERRES
   507  504  505 ar   
   508  504  509 ar   
   509  505  506 ar   
   510  505  512 1    
   511  506  513 1    
   512  506  507 ar   
   513  507  508 ar   
   514  508  514 1    
   515  508  509 ar   
   516  509  515 1    
   517  510  511 1    
   518  511  519 1    
   519  511  518 1    
   520  511  520 1    
   521  521  536 1    
   522  521  527 1    
   523  522  530 2    
   524  523  524 1    
   525  523  537 1    
   526  523  530 am   BACKBONE|DICT|INTERRES
   527  524  529 ar   
   528  524  525 ar   
   529  525  526 ar   
   530  525  532 1    
   531  526  527 ar   
   532  526  533 1    
   533  527  528 ar   
   534  528  529 ar   
   535  528  534 1    
   536  529  535 1    
   537  530  531 1    
   538  531  538 1    
   539  531  540 1    
   540  531  539 1    
   541  541  547 1    
   542  541  556 1    
   543  542  550 2    
   544  543  550 am   BACKBONE|DICT|INTERRES
   545  543  544 1    
   546  543  557 1    
   547  544  549 ar   
   548  544  545 ar   
   549  545  552 1    
   550  545  546 ar   
   551  546  553 1    
   552  546  547 ar   
   553  547  548 ar   
   554  548  554 1    
   555  548  549 ar   
   556  549  555 1    
   557  550  551 1    
   558  551  558 1    
   559  551  560 1    
   560  551  559 1    
   561  561  576 1    
   562  561  567 1    
   563  562  570 2    
   564  563  577 1    
   565  563  570 am   BACKBONE|DICT|INTERRES
   566  563  564 1    
   567  564  565 ar   
   568  564  569 ar   
   569  565  572 1    
   570  565  566 ar   
   571  566  567 ar   
   572  566  573 1    
   573  567  568 ar   
   574  568  569 ar   
   575  568  574 1    
   576  569  575 1    
   577  570  571 1    
   578  571  579 1    
   579  571  578 1    
   580  571  580 1    
   581  581  596 1    
   582  581  587 1    
   583  582  590 2    
   584  583  584 1    
   585  583  597 1    
   586  583  590 am   BACKBONE|DICT|INTERRES
   587  584  585 ar   
   588  584  589 ar   
   589  585  586 ar   
   590  585  592 1    
   591  586  593 1    
   592  586  587 ar   
   593  587  588 ar   
   594  588  594 1    
   595  588  589 ar   
   596  589  595 1    
   597  590  591 1    
   598  591  599 1    
   599  591  598 1    
   600  591  600 1    
   601  601  616 1    
   602  601  607 1    
   603  602  610 2    
   604  603  604 1    
   605  603  617 1    
   606  603  610 am   BACKBONE|DICT|INTERRES
   607  604  609 ar   
   608  604  605 ar   
   609  605  606 ar   
   610  605  612 1    
   611  606  607 ar   
   612  606  613 1    
   613  607  608 ar   
   614  608  609 ar   
   615  608  614 1    
   616  609  615 1    
   617  610  611 1    
   618  611  618 1    
   619  611  620 1    
   620  611  619 1    
   621  621  627 1    
   622  621  636 1    
   623  622  630 2    
   624  623  630 am   BACKBONE|DICT|INTERRES
   625  623  624 1    
   626  623  637 1    
   627  624  629 ar   
   628  624  625 ar   
   629  625  632 1    
   630  625  626 ar   
   631  626  633 1    
   632  626  627 ar   
   633  627  628 ar   
   634  628  634 1    
   635  628  629 ar   
   636  629  635 1    
   637  630  631 1    
   638  631  638 1    
   639  631  640 1    
   640  631  639 1    
   641  641  656 1    
   642  641  647 1    
   643  642  650 2    
   644  643  657 1    
   645  643  650 am   BACKBONE|DICT|INTERRES
   646  643  644 1    
   647  644  645 ar   
   648  644  649 ar   
   649  645  652 1    
   650  645  646 ar   
   651  646  647 ar   
   652  646  653 1    
   653  647  648 ar   
   654  648  649 ar   
   655  648  654 1    
   656  649  655 1    
   657  650  651 1    
   658  651  659 1    
   659  651  658 1    
   660  651  660 1    
   661  661  676 1    
   662  661  667 1    
   663  662  670 2    
   664  663  664 1    
   665  663  677 1    
   666  663  670 am   BACKBONE|DICT|INTERRES
   667  664  665 ar   
   668  664  669 ar   
   669  665  666 ar   
   670  665  672 1    
   671  666  673 1    
   672  666  667 ar   
   673  667  668 ar   
   674  668  674 1    
   675  668  669 ar   
   676  669  675 1    
   677  670  671 1    
   678  671  679 1    
   679  671  678 1    
   680  671  680 1    
   681  681  696 1    
   682  681  687 1    
   683  682  690 2    
   684  683  684 1    
   685  683  697 1    
   686  683  690 am   BACKBONE|DICT|INTERRES
   687  684  689 ar   
   688  684  685 ar   
   689  685  686 ar   
   690  685  692 1    
   691  686  687 ar   
   692  686  693 1    
   693  687  688 ar   
   694  688  689 ar   
   695  688  694 1    
   696  689  695 1    
   697  690  691 1    
   698  691  698 1    
   699  691  700 1    
   700  691  699 1    
   701  701  707 1    
   702  701  716 1    
   703  702  710 2    
   704  703  710 am   BACKBONE|DICT|INTERRES
   705  703  704 1    
   706  703  717 1    
   707  704  709 ar   
   708  704  705 ar   
   709  705  712 1    
   710  705  706 ar   
   711  706  713 1    
   712  706  707 ar   
   713  707  708 ar   
   714  708  714 1    
   715  708  709 ar   
   716  709  715 1    
   717  710  711 1    
   718  711  718 1    
   719  711  720 1    
   720  711  719 1    
   721  721  736 1    
   722  721  727 1    
   723  722  730 2    
   724  723  737 1    
   725  723  730 am   BACKBONE|DICT|INTERRES
   726  723  724 1    
   727  724  725 ar   
   728  724  729 ar   
   729  725  732 1    
   730  725  726 ar   
   731  726  727 ar   
   732  726  733 1    
   733  727  728 ar   
   734  728  729 ar   
   735  728  734 1    
   736  729  735 1    
   737  730  731 1    
   738  731  739 1    
   739  731  738 1    
   740  731  740 1    
   741  741  756 1    
   742  741  747 1    
   743  742  750 2    
   744  743  744 1    
   745  743  757 1    
   746  743  750 am   BACKBONE|DICT|INTERRES
   747  744  745 ar   
   748  744  749 ar   
   749  745  746 ar   
   750  745  752 1    
   751  746  753 1    
   752  746  747 ar   
   753  747  748 ar   
   754  748  754 1    
   755  748  749 ar   
   756  749  755 1    
   757  750  751 1    
   758  751  759 1    
   759  751  758 1    
   760  751  760 1    
   761  761  776 1    
   762  761  767 1    
   763  762  770 2    
   764  763  764 1    
   765  763  777 1    
   766  763  770 am   BACKBONE|DICT|INTERRES
   767  764  769 ar   
   768  764  765 ar   
   769  765  766 ar   
   770  765  772 1    
   771  766  767 ar   
   772  766  773 1    
   773  767  768 ar   
   774  768  769 ar   
   775  768  774 1    
   776  769  775 1    
   777  770  771 1    
   778  771  778 1    
   779  771  780 1    
   780  771  779 1    
   781  781  787 1    
   782  781  796 1    
   783  782  790 2    
   784  783  790 am   BACKBONE|DICT|INTERRES
   785  783  784 1    
   786  783  797 1    
   787  784  789 ar   
   788  784  785 ar   
   789  785  792 1    
   790  785  786 ar   
   791  786  793 1    
   792  786  787 ar   
   793  787  788 ar   
   794  788  794 1    
   795  788  789 ar   
   796  789  795 1    
   797  790  791 1    
   798  791  798 1    
   799  791  800 1    
   800  791  799 1    
   801  801  816 1    
   802  801  807 1    
   803  802  810 2    
   804  803  817 1    
   805  803  810 am   BACKBONE|DICT|INTERRES
   806  803  804 1    
   807  804  805 ar   
   808  804  809 ar   
   809  805  812 1    
   810  805  806 ar   
   811  806  807 ar   
   812  806  813 1    
   813  807  808 ar   
   814  808  809 ar   
   815  808  814 1    
   816  809  815 1    
   817  810  811 1    
   818  811  819 1    
   819  811  818 1    
   820  811  820 1    
   821  821  836 1    
   822  821  827 1    
   823  822  830 2    
   824  823  824 1    
   825  823  837 1    
   826  823  830 am   BACKBONE|DICT|INTERRES
   827  824  825 ar   
   828  824  829 ar   
   829  825  826 ar   
   830  825  832 1    
   831  826  833 1    
   832  826  827 ar   
   833  827  828 ar   
   834  828  834 1    
   835  828  829 ar   
   836  829  835 1    
   837  830  831 1    
   838  831  839 1    
   839  831  838 1    
   840  831  840 1    
   841  841  856 1    
   842  841  847 1    
   843  842  850 2    
   844  843  844 1    
   845  843  857 1    
   846  843  850 am   BACKBONE|DICT|INTERRES
   847  844  849 ar   
   848  844  845 ar   
   849  845  846 ar   
   850  845  852 1    
   851  846  847 ar   
   852  846  853 1    
   853  847  848 ar   
   854  848  849 ar   
   855  848  854 1    
   856  849  855 1    
   857  850  851 1    
   858  851  858 1    
   859  851  860 1    
   860  851  859 1    
   861  861  867 1    
   862  861  876 1    
   863  862  870 2    
   864  863  870 am   BACKBONE|DICT|INTERRES
   865  863  864 1    
   866  863  877 1    
   867  864  869 ar   
   868  864  865 ar   
   869  865  872 1    
   870  865  866 ar   
   871  866  873 1    
   872  866  867 ar   
   873  867  868 ar   
   874  868  874 1    
   875  868  869 ar   
   876  869  875 1    
   877  870  871 1    
   878  871  878 1    
   879  871  880 1    
   880  871  879 1    
   881  881  896 1    
   882  881  887 1    
   883  882  890 2    
   884  883  897 1    
   885  883  890 am   BACKBONE|DICT|INTERRES
   886  883  884 1    
   887  884  885 ar   
   888  884  889 ar   
   889  885  892 1    
   890  885  886 ar   
   891  886  887 ar   
   892  886  893 1    
   893  887  888 ar   
   894  888  889 ar   
   895  888  894 1    
   896  889  895 1    
   897  890  891 1    
   898  891  899 1    
   899  891  898 1    
   900  891  900 1    
   901  901  916 1    
   902  901  907 1    
   903  902  910 2    
   904  903  904 1    
   905  903  917 1    
   906  903  910 am   BACKBONE|DICT|INTERRES
   907  904  905 ar   
   908  904  909 ar   
   909  905  906 ar   
   910  905  912 1    
   911  906  913 1    
   912  906  907 ar   
   913  907  908 ar   
   914  908  914 1    
   915  908  909 ar   
   916  909  915 1    
   917  910  911 1    
   918  911  919 1    
   919  911  918 1    
   920  911  920 1    
   921  921  936 1    
   922  921  927 1    
   923  922  930 2    
   924  923  924 1    
   925  923  937 1    
   926  923  930 am   BACKBONE|DICT|INTERRES
   927  924  929 ar   
   928  924  925 ar   
   929  925  926 ar   
   930  925  932 1    
   931  926  927 ar   
   932  926  933 1    
   933  927  928 ar   
   934  928  929 ar   
   935  928  934 1    
   936  929  935 1    
   937  930  931 1    
   938  931  938 1    
   939  931  940 1    
   940  931  939 1    
   941  941  947 1    
   942  941  956 1    
   943  942  950 2    
   944  943  950 am   BACKBONE|DICT|INTERRES
   945  943  944 1    
   946  943  957 1    
   947  944  949 ar   
   948  944  945 ar   
   949  945  952 1    
   950  945  946 ar   
   951  946  953 1    
   952  946  947 ar   
   953  947  948 ar   
   954  948  954 1    
   955  948  949 ar   
   956  949  955 1    
   957  950  951 1    
   958  951  958 1    
   959  951  960 1    
   960  951  959 1    
   961  961  976 1    
   962  961  967 1    
   963  962  970 2    
   964  963  977 1    
   965  963  970 am   BACKBONE|DICT|INTERRES
   966  963  964 1    
   967  964  965 ar   
   968  964  969 ar   
   969  965  972 1    
   970  965  966 ar   
   971  966  967 ar   
   972  966  973 1    
   973  967  968 ar   
   974  968  969 ar   
   975  968  974 1    
   976  969  975 1    
   977  970  971 1    
   978  971  979 1    
   979  971  978 1    
   980  971  980 1    
   981  981  996 1    
   982  981  987 1    
   983  982  990 2    
   984  983  984 1    
   985  983  997 1    
   986  983  990 am   BACKBONE|DICT|INTERRES
   987  984  985 ar   
   988  984  989 ar   
   989  985  986 ar   
   990  985  992 1    
   991  986  993 1    
   992  986  987 ar   
   993  987  988 ar   
   994  988  994 1    
   995  988  989 ar   
   996  989  995 1    
   997  990  991 1    
   998  991  999 1    
   999  991  998 1    
  1000  991 1000 1    
  1001 1001 1016 1    
  1002 1001 1007 1    
  1003 1002 1010 2    
  1004 1003 1004 1    
  1005 1003 1017 1    
  1006 1003 1010 am   BACKBONE|DICT|INTERRES
  1007 1004 1009 ar   
  1008 1004 1005 ar   
  1009 1005 1006 ar   
  1010 1005 1012 1    
  1011 1006 1007 ar   
  1012 1006 1013 1    
  1013 1007 1008 ar   
  1014 1008 1009 ar   
  1015 1008 1014 1    
  1016 1009 1015 1    
  1017 1010 1011 1    
  1018 1011 1018 1    
  1019 1011 1020 1    
  1020 1011 1019 1    
  1021 1021 1027 1    
  1022 1021 1036 1    
  1023 1022 1030 2    
  1024 1023 1030 am   BACKBONE|DICT|INTERRES
  1025 1023 1024 1    
  1026 1023 1037 1    
  1027 1024 1029 ar   
  1028 1024 1025 ar   
  1029 1025 1032 1    
  1030 1025 1026 ar   
  1031 1026 1033 1    
  1032 1026 1027 ar   
  1033 1027 1028 ar   
  1034 1028 1034 1    
  1035 1028 1029 ar   
  1036 1029 1035 1    
  1037 1030 1031 1    
  1038 1031 1038 1    
  1039 1031 1040 1    
  1040 1031 1039 1    
  1041 1041 1056 1    
  1042 1041 1047 1    
  1043 1042 1050 2    
  1044 1043 1057 1    
  1045 1043 1050 am   BACKBONE|DICT|INTERRES
  1046 1043 1044 1    
  1047 1044 1045 ar   
  1048 1044 1049 ar   
  1049 1045 1052 1    
  1050 1045 1046 ar   
  1051 1046 1047 ar   
  1052 1046 1053 1    
  1053 1047 1048 ar   
  1054 1048 1049 ar   
  1055 1048 1054 1    
  1056 1049 1055 1    
  1057 1050 1051 1    
  1058 1051 1059 1    
  1059 1051 1058 1    
  1060 1051 1060 1    
  1061 1061 1076 1    
  1062 1061 1067 1    
  1063 1062 1070 2    
  1064 1063 1064 1    
  1065 1063 1077 1    
  1066 1063 1070 am   BACKBONE|DICT|INTERRES
  1067 1064 1065 ar   
  1068 1064 1069 ar   
  1069 1065 1066 ar   
  1070 1065 1072 1    
  1071 1066 1073 1    
  1072 1066 1067 ar   
  1073 1067 1068 ar   
  1074 1068 1074 1    
  1075 1068 1069 ar   
  1076 1069 1075 1    
  1077 1070 1071 1    
  1078 1071 1079 1    
  1079 1071 1078 1    
  1080 1071 1080 1    
  1081 1081 1096 1    
  1082 1081 1087 1    
  1083 1082 1090 2    
  1084 1083 1084 1    
  1085 1083 1097 1    
  1086 1083 1090 am   BACKBONE|DICT|INTERRES
  1087 1084 1089 ar   
  1088 1084 1085 ar   
  1089 1085 1086 ar   
  1090 1085 1092 1    
  1091 1086 1087 ar   
  1092 1086 1093 1    
  1093 1087 1088 ar   
  1094 1088 1089 ar   
  1095 1088 1094 1    
  1096 1089 1095 1    
  1097 1090 1091 1    
  1098 1091 1098 1    
  1099 1091 1100 1    
  1100 1091 1099 1    
  1101 1101 1107 1    
  1102 1101 1116 1    
  1103 1102 1110 2    
  1104 1103 1110 am   BACKBONE|DICT|INTERRES
  1105 1103 1104 1    
  1106 1103 1117 1    
  1107 1104 1109 ar   
  1108 1104 1105 ar   
  1109 1105 1112 1    
  1110 1105 1106 ar   
  1111 1106 1113 1    
  1112 1106 1107 ar   
  1113 1107 1108 ar   
  1114 1108 1114 1    
  1115 1108 1109 ar   
  1116 1109 1115 1    
  1117 1110 1111 1    
  1118 1111 1118 1    
  1119 1111 1120 1    
  1120 1111 1119 1    
  1121 1121 1136 1    
  1122 1121 1127 1    
  1123 1122 1130 2    
  1124 1123 1137 1    
  1125 1123 1130 am   BACKBONE|DICT|INTERRES
  1126 1123 1124 1    
  1127 1124 1125 ar   
  1128 1124 1129 ar   
  1129 1125 1132 1    
  1130 1125 1126 ar   
  1131 1126 1127 ar   
  1132 1126 1133 1    
  1133 1127 1128 ar   
  1134 1128 1129 ar   
  1135 1128 1134 1    
  1136 1129 1135 1    
  1137 1130 1131 1    
  1138 1131 1139 1    
  1139 1131 1138 1    
  1140 1131 1140 1    
  1141 1141 1156 1    
  1142 1141 1147 1    
  1143 1142 1150 2    
  1144 1143 1144 1    
  1145 1143 1157 1    
  1146 1143 1150 am   BACKBONE|DICT|INTERRES
  1147 1144 1145 ar   
  1148 1144 1149 ar   
  1149 1145 1146 ar   
  1150 1145 1152 1    
  1151 1146 1153 1    
  1152 1146 1147 ar   
  1153 1147 1148 ar   
  1154 1148 1154 1    
  1155 1148 1149 ar   
  1156 1149 1155 1    
  1157 1150 1151 1    
  1158 1151 1159 1    
  1159 1151 1158 1    
  1160 1151 1160 1    
  1161 1161 1176 1    
  1162 1161 1167 1    
  1163 1162 1170 2    
  1164 1163 1164 1    
  1165 1163 1177 1    
  1166 1163 1170 am   BACKBONE|DICT|INTERRES
  1167 1164 1169 ar   
  1168 1164 1165 ar   
  1169 1165 1166 ar   
  1170 1165 1172 1    
  1171 1166 1167 ar   
  1172 1166 1173 1    
  1173 1167 1168 ar   
  1174 1168 1169 ar   
  1175 1168 1174 1    
  1176 1169 1175 1    
  1177 1170 1171 1    
  1178 1171 1178 1    
  1179 1171 1180 1    
  1180 1171 1179 1    
  1181 1181 1187 1    
  1182 1181 1196 1    
  1183 1182 1190 2    
  1184 1183 1190 am   BACKBONE|DICT|INTERRES
  1185 1183 1184 1    
  1186 1183 1197 1    
  1187 1184 1189 ar   
  1188 1184 1185 ar   
  1189 1185 1192 1    
  1190 1185 1186 ar   
  1191 1186 1193 1    
  1192 1186 1187 ar   
  1193 1187 1188 ar   
  1194 1188 1194 1    
  1195 1188 1189 ar   
  1196 1189 1195 1    
  1197 1190 1191 1    
  1198 1191 1198 1    
  1199 1191 1200 1    
  1200 1191 1199 1    
  1201 1201 1216 1    
  1202 1201 1207 1    
  1203 1202 1210 2    
  1204 1203 1217 1    
  1205 1203 1210 am   BACKBONE|DICT|INTERRES
  1206 1203 1204 1    
  1207 1204 1205 ar   
  1208 1204 1209 ar   
  1209 1205 1212 1    
  1210 1205 1206 ar   
  1211 1206 1207 ar   
  1212 1206 1213 1    
  1213 1207 1208 ar   
  1214 1208 1209 ar   
  1215 1208 1214 1    
  1216 1209 1215 1    
  1217 1210 1211 1    
  1218 1211 1219 1    
  1219 1211 1218 1    
  1220 1211 1220 1    
  1221 1221 1236 1    
  1222 1221 1227 1    
  1223 1222 1230 2    
  1224 1223 1224 1    
  1225 1223 1237 1    
  1226 1223 1230 am   BACKBONE|DICT|INTERRES
  1227 1224 1225 ar   
  1228 1224 1229 ar   
  1229 1225 1226 ar   
  1230 1225 1232 1    
  1231 1226 1233 1    
  1232 1226 1227 ar   
  1233 1227 1228 ar   
  1234 1228 1234 1    
  1235 1228 1229 ar   
  1236 1229 1235 1    
  1237 1230 1231 1    
  1238 1231 1239 1    
  1239 1231 1238 1    
  1240 1231 1240 1    
  1241 1241 1256 1    
  1242 1241 1247 1    
  1243 1242 1250 2    
  1244 1243 1244 1    
  1245 1243 1257 1    
  1246 1243 1250 am   BACKBONE|DICT|INTERRES
  1247 1244 1249 ar   
  1248 1244 1245 ar   
  1249 1245 1246 ar   
  1250 1245 1252 1    
  1251 1246 1247 ar   
  1252 1246 1253 1    
  1253 1247 1248 ar   
  1254 1248 1249 ar   
  1255 1248 1254 1    
  1256 1249 1255 1    
  1257 1250 1251 1    
  1258 1251 1258 1    
  1259 1251 1260 1    
  1260 1251 1259 1    
  1261 1261 1267 1    
  1262 1261 1276 1    
  1263 1262 1270 2    
  1264 1263 1270 am   BACKBONE|DICT|INTERRES
  1265 1263 1264 1    
  1266 1263 1277 1    
  1267 1264 1269 ar   
  1268 1264 1265 ar   
  1269 1265 1272 1    
  1270 1265 1266 ar   
  1271 1266 1273 1    
  1272 1266 1267 ar   
  1273 1267 1268 ar   
  1274 1268 1274 1    
  1275 1268 1269 ar   
  1276 1269 1275 1    
  1277 1270 1271 1    
  1278 1271 1278 1    
  1279 1271 1280 1    
  1280 1271 1279 1    
  1281 1281 1296 1    
  1282 1281 1287 1    
  1283 1282 1290 2    
  1284 1283 1297 1    
  1285 1283 1290 am   BACKBONE|DICT|INTERRES
  1286 1283 1284 1    
  1287 1284 1285 ar   
  1288 1284 1289 ar   
  1289 1285 1292 1    
  1290 1285 1286 ar   
  1291 1286 1287 ar   
  1292 1286 1293 1    
  1293 1287 1288 ar   
  1294 1288 1289 ar   
  1295 1288 1294 1    
  1296 1289 1295 1    
  1297 1290 1291 1    
  1298 1291 1299 1    
  1299 1291 1298 1    
  1300 1291 1300 1    
  1301 1301 1316 1    
  1302 1301 1307 1    
  1303 1302 1310 2    
  1304 1303 1304 1    
  1305 1303 1317 1    
  1306 1303 1310 am   BACKBONE|DICT|INTERRES
  1307 1304 1305 ar   
  1308 1304 1309 ar   
  1309 1305 1306 ar   
  1310 1305 1312 1    
  1311 1306 1313 1    
  1312 1306 1307 ar   
  1313 1307 1308 ar   
  1314 1308 1314 1    
  1315 1308 1309 ar   
  1316 1309 1315 1    
  1317 1310 1311 1    
  1318 1311 1319 1    
  1319 1311 1318 1    
  1320 1311 1320 1    
  1321 1321 1336 1    
  1322 1321 1327 1    
  1323 1322 1330 2    
  1324 1323 1324 1    
  1325 1323 1337 1    
  1326 1323 1330 am   BACKBONE|DICT|INTERRES
  1327 1324 1329 ar   
  1328 1324 1325 ar   
  1329 1325 1326 ar   
  1330 1325 1332 1    
  1331 1326 1327 ar   
  1332 1326 1333 1    
  1333 1327 1328 ar   
  1334 1328 1329 ar   
  1335 1328 1334 1    
  1336 1329 1335 1    
  1337 1330 1331 1    
  1338 1331 1338 1    
  1339 1331 1340 1    
  1340 1331 1339 1    
  1341 1341 1347 1    
  1342 1341 1356 1    
  1343 1342 1350 2    
  1344 1343 1350 am   BACKBONE|DICT|INTERRES
  1345 1343 1344 1    
  1346 1343 1357 1    
  1347 1344 1349 ar   
  1348 1344 1345 ar   
  1349 1345 1352 1    
  1350 1345 1346 ar   
  1351 1346 1353 1    
  1352 1346 1347 ar   
  1353 1347 1348 ar   
  1354 1348 1354 1    
  1355 1348 1349 ar   
  1356 1349 1355 1    
  1357 1350 1351 1    
  1358 1351 1358 1    
  1359 1351 1360 1    
  1360 1351 1359 1    
  1361 1361 1376 1    
  1362 1361 1367 1    
  1363 1362 1370 2    
  1364 1363 1377 1    
  1365 1363 1370 am   BACKBONE|DICT|INTERRES
  1366 1363 1364 1    
  1367 1364 1365 ar   
  1368 1364 1369 ar   
  1369 1365 1372 1    
  1370 1365 1366 ar   
  1371 1366 1367 ar   
  1372 1366 1373 1    
  1373 1367 1368 ar   
  1374 1368 1369 ar   
  1375 1368 1374 1    
  1376 1369 1375 1    
  1377 1370 1371 1    
  1378 1371 1379 1    
  1379 1371 1378 1    
  1380 1371 1380 1    
  1381 1381 1396 1    
  1382 1381 1387 1    
  1383 1382 1390 2    
  1384 1383 1384 1    
  1385 1383 1397 1    
  1386 1383 1390 am   BACKBONE|DICT|INTERRES
  1387 1384 1385 ar   
  1388 1384 1389 ar   
  1389 1385 1386 ar   
  1390 1385 1392 1    
  1391 1386 1393 1    
  1392 1386 1387 ar   
  1393 1387 1388 ar   
  1394 1388 1394 1    
  1395 1388 1389 ar   
  1396 1389 1395 1    
  1397 1390 1391 1    
  1398 1391 1399 1    
  1399 1391 1398 1    
  1400 1391 1400 1    
  1401 1401 1416 1    
  1402 1401 1407 1    
  1403 1402 1410 2    
  1404 1403 1404 1    
  1405 1403 1417 1    
  1406 1403 1410 am   BACKBONE|DICT|INTERRES
  1407 1404 1409 ar   
  1408 1404 1405 ar   
  1409 1405 1406 ar   
  1410 1405 1412 1    
  1411 1406 1407 ar   
  1412 1406 1413 1    
  1413 1407 1408 ar   
  1414 1408 1409 ar   
  1415 1408 1414 1    
  1416 1409 1415 1    
  1417 1410 1411 1    
  1418 1411 1418 1    
  1419 1411 1420 1    
  1420 1411 1419 1    
  1421 1421 1427 1    
  1422 1421 1436 1    
  1423 1422 1430 2    
  1424 1423 1430 am   BACKBONE|DICT|INTERRES
  1425 1423 1424 1    
  1426 1423 1437 1    
  1427 1424 1429 ar   
  1428 1424 1425 ar   
  1429 1425 1432 1    
  1430 1425 1426 ar   
  1431 1426 1433 1    
  1432 1426 1427 ar   
  1433 1427 1428 ar   
  1434 1428 1434 1    
  1435 1428 1429 ar   
  1436 1429 1435 1    
  1437 1430 1431 1    
  1438 1431 1438 1    
  1439 1431 1440 1    
  1440 1431 1439 1    
  1441 1441 1456 1    
  1442 1441 1447 1    
  1443 1442 1450 2    
  1444 1443 1457 1    
  1445 1443 1450 am   BACKBONE|DICT|INTERRES
  1446 1443 1444 1    
  1447 1444 1445 ar   
  1448 1444 1449 ar   
  1449 1445 1452 1    
  1450 1445 1446 ar   
  1451 1446 1447 ar   
  1452 1446 1453 1    
  1453 1447 1448 ar   
  1454 1448 1449 ar   
  1455 1448 1454 1    
  1456 1449 1455 1    
  1457 1450 1451 1    
  1458 1451 1459 1    
  1459 1451 1458 1    
  1460 1451 1460 1    
  1461 1461 1476 1    
  1462 1461 1467 1    
  1463 1462 1470 2    
  1464 1463 1464 1    
  1465 1463 1477 1    
  1466 1463 1470 am   BACKBONE|DICT|INTERRES
  1467 1464 1465 ar   
  1468 1464 1469 ar   
  1469 1465 1466 ar   
  1470 1465 1472 1    
  1471 1466 1473 1    
  1472 1466 1467 ar   
  1473 1467 1468 ar   
  1474 1468 1474 1    
  1475 1468 1469 ar   
  1476 1469 1475 1    
  1477 1470 1471 1    
  1478 1471 1479 1    
  1479 1471 1478 1    
  1480 1471 1480 1    
  1481 1481 1496 1    
  1482 1481 1487 1    
  1483 1482 1490 2    
  1484 1483 1484 1    
  1485 1483 1497 1    
  1486 1483 1490 am   BACKBONE|DICT|INTERRES
  1487 1484 1489 ar   
  1488 1484 1485 ar   
  1489 1485 1486 ar   
  1490 1485 1492 1    
  1491 1486 1487 ar   
  1492 1486 1493 1    
  1493 1487 1488 ar   
  1494 1488 1489 ar   
  1495 1488 1494 1    
  1496 1489 1495 1    
  1497 1490 1491 1    
  1498 1491 1498 1    
  1499 1491 1500 1    
  1500 1491 1499 1    
  1501 1501 1507 1    
  1502 1501 1516 1    
  1503 1502 1510 2    
  1504 1503 1510 am   BACKBONE|DICT|INTERRES
  1505 1503 1504 1    
  1506 1503 1517 1    
  1507 1504 1509 ar   
  1508 1504 1505 ar   
  1509 1505 1512 1    
  1510 1505 1506 ar   
  1511 1506 1513 1    
  1512 1506 1507 ar   
  1513 1507 1508 ar   
  1514 1508 1514 1    
  1515 1508 1509 ar   
  1516 1509 1515 1    
  1517 1510 1511 1    
  1518 1511 1518 1    
  1519 1511 1520 1    
  1520 1511 1519 1    
  1521 1521 1536 1    
  1522 1521 1527 1    
  1523 1522 1530 2    
  1524 1523 1537 1    
  1525 1523 1530 am   BACKBONE|DICT|INTERRES
  1526 1523 1524 1    
  1527 1524 1525 ar   
  1528 1524 1529 ar   
  1529 1525 1532 1    
  1530 1525 1526 ar   
  1531 1526 1527 ar   
  1532 1526 1533 1    
  1533 1527 1528 ar   
  1534 1528 1529 ar   
  1535 1528 1534 1    
  1536 1529 1535 1    
  1537 1530 1531 1    
  1538 1531 1539 1    
  1539 1531 1538 1    
  1540 1531 1540 1    
  1541 1541 1556 1    
  1542 1541 1547 1    
  1543 1542 1550 2    
  1544 1543 1544 1    
  1545 1543 1557 1    
  1546 1543 1550 am   BACKBONE|DICT|INTERRES
  1547 1544 1545 ar   
  1548 1544 1549 ar   
  1549 1545 1546 ar   
  1550 1545 1552 1    
  1551 1546 1553 1    
  1552 1546 1547 ar   
  1553 1547 1548 ar   
  1554 1548 1554 1    
  1555 1548 1549 ar   
  1556 1549 1555 1    
  1557 1550 1551 1    
  1558 1551 1559 1    
  1559 1551 1558 1    
  1560 1551 1560 1    
  1561 1561 1576 1    
  1562 1561 1567 1    
  1563 1562 1570 2    
  1564 1563 1564 1    
  1565 1563 1577 1    
  1566 1563 1570 am   BACKBONE|DICT|INTERRES
  1567 1564 1569 ar   
  1568 1564 1565 ar   
  1569 1565 1566 ar   
  1570 1565 1572 1    
  1571 1566 1567 ar   
  1572 1566 1573 1    
  1573 1567 1568 ar   
  1574 1568 1569 ar   
  1575 1568 1574 1    
  1576 1569 1575 1    
  1577 1570 1571 1    
  1578 1571 1578 1    
  1579 1571 1580 1    
  1580 1571 1579 1    
  1581 1581 1587 1    
  1582 1581 1596 1    
  1583 1582 1590 2    
  1584 1583 1590 am   BACKBONE|DICT|INTERRES
  1585 1583 1584 1    
  1586 1583 1597 1    
  1587 1584 1589 ar   
  1588 1584 1585 ar   
  1589 1585 1592 1    
  1590 1585 1586 ar   
  1591 1586 1593 1    
  1592 1586 1587 ar   
  1593 1587 1588 ar   
  1594 1588 1594 1    
  1595 1588 1589 ar   
  1596 1589 1595 1    
  1597 1590 1591 1    
  1598 1591 1598 1    
  1599 1591 1600 1    
  1600 1591 1599 1    
  1601 1601 1616 1    
  1602 1601 1607 1    
  1603 1602 1610 2    
  1604 1603 1617 1    
  1605 1603 1610 am   BACKBONE|DICT|INTERRES
  1606 1603 1604 1    
  1607 1604 1605 ar   
  1608 1604 1609 ar   
  1609 1605 1612 1    
  1610 1605 1606 ar   
  1611 1606 1607 ar   
  1612 1606 1613 1    
  1613 1607 1608 ar   
  1614 1608 1609 ar   
  1615 1608 1614 1    
  1616 1609 1615 1    
  1617 1610 1611 1    
  1618 1611 1619 1    
  1619 1611 1618 1    
  1620 1611 1620 1    
  1621 1621 1636 1    
  1622 1621 1627 1    
  1623 1622 1630 2    
  1624 1623 1624 1    
  1625 1623 1637 1    
  1626 1623 1630 am   BACKBONE|DICT|INTERRES
  1627 1624 1625 ar   
  1628 1624 1629 ar   
  1629 1625 1626 ar   
  1630 1625 1632 1    
  1631 1626 1633 1    
  1632 1626 1627 ar   
  1633 1627 1628 ar   
  1634 1628 1634 1    
  1635 1628 1629 ar   
  1636 1629 1635 1    
  1637 1630 1631 1    
  1638 1631 1639 1    
  1639 1631 1638 1    
  1640 1631 1640 1    
  1641 1641 1656 1    
  1642 1641 1647 1    
  1643 1642 1650 2    
  1644 1643 1644 1    
  1645 1643 1657 1    
  1646 1643 1650 am   BACKBONE|DICT|INTERRES
  1647 1644 1649 ar   
  1648 1644 1645 ar   
  1649 1645 1646 ar   
  1650 1645 1652 1    
  1651 1646 1647 ar   
  1652 1646 1653 1    
  1653 1647 1648 ar   
  1654 1648 1649 ar   
  1655 1648 1654 1    
  1656 1649 1655 1    
  1657 1650 1651 1    
  1658 1651 1658 1    
  1659 1651 1660 1    
  1660 1651 1659 1    
  1661 1661 1667 1    
  1662 1661 1676 1    
  1663 1662 1670 2    
  1664 1663 1670 am   BACKBONE|DICT|INTERRES
  1665 1663 1664 1    
  1666 1663 1677 1    
  1667 1664 1669 ar   
  1668 1664 1665 ar   
  1669 1665 1672 1    
  1670 1665 1666 ar   
  1671 1666 1673 1    
  1672 1666 1667 ar   
  1673 1667 1668 ar   
  1674 1668 1674 1    
  1675 1668 1669 ar   
  1676 1669 1675 1    
  1677 1670 1671 1    
  1678 1671 1678 1    
  1679 1671 1680 1    
  1680 1671 1679 1    
  1681 1681 1696 1    
  1682 1681 1687 1    
  1683 1682 1690 2    
  1684 1683 1697 1    
  1685 1683 1690 am   BACKBONE|DICT|INTERRES
  1686 1683 1684 1    
  1687 1684 1685 ar   
  1688 1684 1689 ar   
  1689 1685 1692 1    
  1690 1685 1686 ar   
  1691 1686 1687 ar   
  1692 1686 1693 1    
  1693 1687 1688 ar   
  1694 1688 1689 ar   
  1695 1688 1694 1    
  1696 1689 1695 1    
  1697 1690 1691 1    
  1698 1691 1699 1    
  1699 1691 1698 1    
  1700 1691 1700 1    
  1701 1701 1716 1    
  1702 1701 1707 1    
  1703 1702 1710 2    
  1704 1703 1704 1    
  1705 1703 1717 1    
  1706 1703 1710 am   BACKBONE|DICT|INTERRES
  1707 1704 1705 ar   
  1708 1704 1709 ar   
  1709 1705 1706 ar   
  1710 1705 1712 1    
  1711 1706 1713 1    
  1712 1706 1707 ar   
  1713 1707 1708 ar   
  1714 1708 1714 1    
  1715 1708 1709 ar   
  1716 1709 1715 1    
  1717 1710 1711 1    
  1718 1711 1719 1    
  1719 1711 1718 1    
  1720 1711 1720 1    
  1721 1721 1736 1    
  1722 1721 1727 1    
  1723 1722 1730 2    
  1724 1723 1724 1    
  1725 1723 1737 1    
  1726 1723 1730 am   BACKBONE|DICT|INTERRES
  1727 1724 1729 ar   
  1728 1724 1725 ar   
  1729 1725 1726 ar   
  1730 1725 1732 1    
  1731 1726 1727 ar   
  1732 1726 1733 1    
  1733 1727 1728 ar   
  1734 1728 1729 ar   
  1735 1728 1734 1    
  1736 1729 1735 1    
  1737 1730 1731 1    
  1738 1731 1738 1    
  1739 1731 1740 1    
  1740 1731 1739 1    
  1741 1741 1747 1    
  1742 1741 1756 1    
  1743 1742 1750 2    
  1744 1743 1750 am   BACKBONE|DICT|INTERRES
  1745 1743 1744 1    
  1746 1743 1757 1    
  1747 1744 1749 ar   
  1748 1744 1745 ar   
  1749 1745 1752 1    
  1750 1745 1746 ar   
  1751 1746 1753 1    
  1752 1746 1747 ar   
  1753 1747 1748 ar   
  1754 1748 1754 1    
  1755 1748 1749 ar   
  1756 1749 1755 1    
  1757 1750 1751 1    
  1758 1751 1758 1    
  1759 1751 1760 1    
  1760 1751 1759 1    
  1761 1761 1776 1    
  1762 1761 1767 1    
  1763 1762 1770 2    
  1764 1763 1777 1    
  1765 1763 1770 am   BACKBONE|DICT|INTERRES
  1766 1763 1764 1    
  1767 1764 1765 ar   
  1768 1764 1769 ar   
  1769 1765 1772 1    
  1770 1765 1766 ar   
  1771 1766 1767 ar   
  1772 1766 1773 1    
  1773 1767 1768 ar   
  1774 1768 1769 ar   
  1775 1768 1774 1    
  1776 1769 1775 1    
  1777 1770 1771 1    
  1778 1771 1779 1    
  1779 1771 1778 1    
  1780 1771 1780 1    
  1781 1781 1796 1    
  1782 1781 1787 1    
  1783 1782 1790 2    
  1784 1783 1784 1    
  1785 1783 1797 1    
  1786 1783 1790 am   BACKBONE|DICT|INTERRES
  1787 1784 1785 ar   
  1788 1784 1789 ar   
  1789 1785 1786 ar   
  1790 1785 1792 1    
  1791 1786 1793 1    
  1792 1786 1787 ar   
  1793 1787 1788 ar   
  1794 1788 1794 1    
  1795 1788 1789 ar   
  1796 1789 1795 1    
  1797 1790 1791 1    
  1798 1791 1799 1    
  1799 1791 1798 1    
  1800 1791 1800 1    
  1801 1801 1816 1    
  1802 1801 1807 1    
  1803 1802 1810 2    
  1804 1803 1804 1    
  1805 1803 1817 1    
  1806 1803 1810 am   BACKBONE|DICT|INTERRES
  1807 1804 1809 ar   
  1808 1804 1805 ar   
  1809 1805 1806 ar   
  1810 1805 1812 1    
  1811 1806 1807 ar   
  1812 1806 1813 1    
  1813 1807 1808 ar   
  1814 1808 1809 ar   
  1815 1808 1814 1    
  1816 1809 1815 1    
  1817 1810 1811 1    
  1818 1811 1818 1    
  1819 1811 1820 1    
  1820 1811 1819 1    
  1821 1821 1827 1    
  1822 1821 1836 1    
  1823 1822 1830 2    
  1824 1823 1830 am   BACKBONE|DICT|INTERRES
  1825 1823 1824 1    
  1826 1823 1837 1    
  1827 1824 1829 ar   
  1828 1824 1825 ar   
  1829 1825 1832 1    
  1830 1825 1826 ar   
  1831 1826 1833 1    
  1832 1826 1827 ar   
  1833 1827 1828 ar   
  1834 1828 1834 1    
  1835 1828 1829 ar   
  1836 1829 1835 1    
  1837 1830 1831 1    
  1838 1831 1838 1    
  1839 1831 1840 1    
  1840 1831 1839 1    
  1841 1841 1856 1    
  1842 1841 1847 1    
  1843 1842 1850 2    
  1844 1843 1857 1    
  1845 1843 1850 am   BACKBONE|DICT|INTERRES
  1846 1843 1844 1    
  1847 1844 1845 ar   
  1848 1844 1849 ar   
  1849 1845 1852 1    
  1850 1845 1846 ar   
  1851 1846 1847 ar   
  1852 1846 1853 1    
  1853 1847 1848 ar   
  1854 1848 1849 ar   
  1855 1848 1854 1    
  1856 1849 1855 1    
  1857 1850 1851 1    
  1858 1851 1859 1    
  1859 1851 1858 1    
  1860 1851 1860 1    
  1861 1861 1876 1    
  1862 1861 1867 1    
  1863 1862 1870 2    
  1864 1863 1864 1    
  1865 1863 1877 1    
  1866 1863 1870 am   BACKBONE|DICT|INTERRES
  1867 1864 1865 ar   
  1868 1864 1869 ar   
  1869 1865 1866 ar   
  1870 1865 1872 1    
  1871 1866 1873 1    
  1872 1866 1867 ar   
  1873 1867 1868 ar   
  1874 1868 1874 1    
  1875 1868 1869 ar   
  1876 1869 1875 1    
  1877 1870 1871 1    
  1878 1871 1879 1    
  1879 1871 1878 1    
  1880 1871 1880 1    
  1881 1881 1896 1    
  1882 1881 1887 1    
  1883 1882 1890 2    
  1884 1883 1884 1    
  1885 1883 1897 1    
  1886 1883 1890 am   BACKBONE|DICT|INTERRES
  1887 1884 1889 ar   
  1888 1884 1885 ar   
  1889 1885 1886 ar   
  1890 1885 1892 1    
  1891 1886 1887 ar   
  1892 1886 1893 1    
  1893 1887 1888 ar   
  1894 1888 1889 ar   
  1895 1888 1894 1    
  1896 1889 1895 1    
  1897 1890 1891 1    
  1898 1891 1898 1    
  1899 1891 1900 1    
  1900 1891 1899 1    
  1901 1901 1907 1    
  1902 1901 1916 1    
  1903 1902 1910 2    
  1904 1903 1910 am   BACKBONE|DICT|INTERRES
  1905 1903 1904 1    
  1906 1903 1917 1    
  1907 1904 1909 ar   
  1908 1904 1905 ar   
  1909 1905 1912 1    
  1910 1905 1906 ar   
  1911 1906 1913 1    
  1912 1906 1907 ar   
  1913 1907 1908 ar   
  1914 1908 1914 1    
  1915 1908 1909 ar   
  1916 1909 1915 1    
  1917 1910 1911 1    
  1918 1911 1918 1    
  1919 1911 1920 1    
  1920 1911 1919 1    
  1921 1921 1936 1    
  1922 1921 1927 1    
  1923 1922 1930 2    
  1924 1923 1937 1    
  1925 1923 1930 am   BACKBONE|DICT|INTERRES
  1926 1923 1924 1    
  1927 1924 1925 ar   
  1928 1924 1929 ar   
  1929 1925 1932 1    
  1930 1925 1926 ar   
  1931 1926 1927 ar   
  1932 1926 1933 1    
  1933 1927 1928 ar   
  1934 1928 1929 ar   
  1935 1928 1934 1    
  1936 1929 1935 1    
  1937 1930 1931 1    
  1938 1931 1939 1    
  1939 1931 1938 1    
  1940 1931 1940 1    
  1941 1941 1956 1    
  1942 1941 1947 1    
  1943 1942 1950 2    
  1944 1943 1944 1    
  1945 1943 1957 1    
  1946 1943 1950 am   BACKBONE|DICT|INTERRES
  1947 1944 1945 ar   
  1948 1944 1949 ar   
  1949 1945 1946 ar   
  1950 1945 1952 1    
  1951 1946 1953 1    
  1952 1946 1947 ar   
  1953 1947 1948 ar   
  1954 1948 1954 1    
  1955 1948 1949 ar   
  1956 1949 1955 1    
  1957 1950 1951 1    
  1958 1951 1959 1    
  1959 1951 1958 1    
  1960 1951 1960 1    
  1961 1961 1976 1    
  1962 1961 1967 1    
  1963 1962 1970 2    
  1964 1963 1964 1    
  1965 1963 1977 1    
  1966 1963 1970 am   BACKBONE|DICT|INTERRES
  1967 1964 1969 ar   
  1968 1964 1965 ar   
  1969 1965 1966 ar   
  1970 1965 1972 1    
  1971 1966 1967 ar   
  1972 1966 1973 1    
  1973 1967 1968 ar   
  1974 1968 1969 ar   
  1975 1968 1974 1    
  1976 1969 1975 1    
  1977 1970 1971 1    
  1978 1971 1978 1    
  1979 1971 1980 1    
  1980 1971 1979 1    
  1981 1981 1987 1    
  1982 1981 1996 1    
  1983 1982 1990 2    
  1984 1983 1990 am   BACKBONE|DICT|INTERRES
  1985 1983 1984 1    
  1986 1983 1997 1    
  1987 1984 1989 ar   
  1988 1984 1985 ar   
  1989 1985 1992 1    
  1990 1985 1986 ar   
  1991 1986 1993 1    
  1992 1986 1987 ar   
  1993 1987 1988 ar   
  1994 1988 1994 1    
  1995 1988 1989 ar   
  1996 1989 1995 1    
  1997 1990 1991 1    
  1998 1991 1998 1    
  1999 1991 2000 1    
  2000 1991 1999 1    
  2001 2001 2016 1    
  2002 2001 2007 1    
  2003 2002 2010 2    
  2004 2003 2017 1    
  2005 2003 2010 am   BACKBONE|DICT|INTERRES
  2006 2003 2004 1    
  2007 2004 2005 ar   
  2008 2004 2009 ar   
  2009 2005 2012 1    
  2010 2005 2006 ar   
  2011 2006 2007 ar   
  2012 2006 2013 1    
  2013 2007 2008 ar   
  2014 2008 2009 ar   
  2015 2008 2014 1    
  2016 2009 2015 1    
  2017 2010 2011 1    
  2018 2011 2019 1    
  2019 2011 2018 1    
  2020 2011 2020 1    
  2021 2021 2036 1    
  2022 2021 2027 1    
  2023 2022 2030 2    
  2024 2023 2024 1    
  2025 2023 2037 1    
  2026 2023 2030 am   BACKBONE|DICT|INTERRES
  2027 2024 2025 ar   
  2028 2024 2029 ar   
  2029 2025 2026 ar   
  2030 2025 2032 1    
  2031 2026 2033 1    
  2032 2026 2027 ar   
  2033 2027 2028 ar   
  2034 2028 2034 1    
  2035 2028 2029 ar   
  2036 2029 2035 1    
  2037 2030 2031 1    
  2038 2031 2039 1    
  2039 2031 2038 1    
  2040 2031 2040 1    
  2041 2041 2056 1    
  2042 2041 2047 1    
  2043 2042 2050 2    
  2044 2043 2044 1    
  2045 2043 2057 1    
  2046 2043 2050 am   BACKBONE|DICT|INTERRES
  2047 2044 2049 ar   
  2048 2044 2045 ar   
  2049 2045 2046 ar   
  2050 2045 2052 1    
  2051 2046 2047 ar   
  2052 2046 2053 1    
  2053 2047 2048 ar   
  2054 2048 2049 ar   
  2055 2048 2054 1    
  2056 2049 2055 1    
  2057 2050 2051 1    
  2058 2051 2058 1    
  2059 2051 2060 1    
  2060 2051 2059 1    
  2061 2061 2067 1    
  2062 2061 2076 1    
  2063 2062 2070 2    
  2064 2063 2070 am   BACKBONE|DICT|INTERRES
  2065 2063 2064 1    
  2066 2063 2077 1    
  2067 2064 2069 ar   
  2068 2064 2065 ar   
  2069 2065 2072 1    
  2070 2065 2066 ar   
  2071 2066 2073 1    
  2072 2066 2067 ar   
  2073 2067 2068 ar   
  2074 2068 2074 1    
  2075 2068 2069 ar   
  2076 2069 2075 1    
  2077 2070 2071 1    
  2078 2071 2078 1    
  2079 2071 2080 1    
  2080 2071 2079 1    
  2081 2081 2096 1    
  2082 2081 2087 1    
  2083 2082 2090 2    
  2084 2083 2097 1    
  2085 2083 2090 am   BACKBONE|DICT|INTERRES
  2086 2083 2084 1    
  2087 2084 2085 ar   
  2088 2084 2089 ar   
  2089 2085 2092 1    
  2090 2085 2086 ar   
  2091 2086 2087 ar   
  2092 2086 2093 1    
  2093 2087 2088 ar   
  2094 2088 2089 ar   
  2095 2088 2094 1    
  2096 2089 2095 1    
  2097 2090 2091 1    
  2098 2091 2099 1    
  2099 2091 2098 1    
  2100 2091 2100 1    
  2101 2101 2116 1    
  2102 2101 2107 1    
  2103 2102 2110 2    
  2104 2103 2104 1    
  2105 2103 2117 1    
  2106 2103 2110 am   BACKBONE|DICT|INTERRES
  2107 2104 2105 ar   
  2108 2104 2109 ar   
  2109 2105 2106 ar   
  2110 2105 2112 1    
  2111 2106 2113 1    
  2112 2106 2107 ar   
  2113 2107 2108 ar   
  2114 2108 2114 1    
  2115 2108 2109 ar   
  2116 2109 2115 1    
  2117 2110 2111 1    
  2118 2111 2119 1    
  2119 2111 2118 1    
  2120 2111 2120 1    
  2121 2121 2136 1    
  2122 2121 2127 1    
  2123 2122 2130 2    
  2124 2123 2124 1    
  2125 2123 2137 1    
  2126 2123 2130 am   BACKBONE|DICT|INTERRES
  2127 2124 2129 ar   
  2128 2124 2125 ar   
  2129 2125 2126 ar   
  2130 2125 2132 1    
  2131 2126 2127 ar   
  2132 2126 2133 1    
  2133 2127 2128 ar   
  2134 2128 2129 ar   
  2135 2128 2134 1    
  2136 2129 2135 1    
  2137 2130 2131 1    
  2138 2131 2138 1    
  2139 2131 2140 1    
  2140 2131 2139 1    
  2141 2141 2147 1    
  2142 2141 2156 1    
  2143 2142 2150 2    
  2144 2143 2150 am   BACKBONE|DICT|INTERRES
  2145 2143 2144 1    
  2146 2143 2157 1    
  2147 2144 2149 ar   
  2148 2144 2145 ar   
  2149 2145 2152 1    
  2150 2145 2146 ar   
  2151 2146 2153 1    
  2152 2146 2147 ar   
  2153 2147 2148 ar   
  2154 2148 2154 1    
  2155 2148 2149 ar   
  2156 2149 2155 1    
  2157 2150 2151 1    
  2158 2151 2158 1    
  2159 2151 2160 1    
  2160 2151 2159 1    
@<TRIPOS>SUBSTRUCTURE
     1 UNK         1 GROUP             0       ****    0 ROOT    
