@<TRIPOS>MOLECULE
probe-0_1_1
6000   6000    1
SMALL
USER_CHARGES


@<TRIPOS>ATOM
      1 O(1)        7.0672   12.6340    6.2473 O.3       1 UNK         0.0000 
      2 O(2)        5.0694   11.3940   12.2913 O.2       1 UNK         0.0000 
      3 N(1)        7.2505   11.3433   11.6604 N.am      1 UNK         0.0000 
      4 C(1)        7.1511   11.7022   10.2975 C.ar      1 UNK         0.0000 
      5 C(2)        6.0689   12.3881    9.7463 C.ar      1 UNK         0.0000 
      6 C(3)        6.0619   12.6969    8.3892 C.ar      1 UNK         0.0000 
      7 C(4)        7.1319   12.3342    7.5752 C.ar      1 UNK         0.0000 
      8 C(5)        8.2275   11.6758    8.1323 C.ar      1 UNK         0.0000 
      9 C(6)        8.2328   11.3630    9.4841 C.ar      1 UNK         0.0000 
     10 C(7)        6.2598   11.1905   12.5539 C.2       1 UNK         0.0000 
     11 C(8)        6.7006   10.7579   13.9266 C.3       1 UNK         0.0000 
     12 H(1)        5.2284   12.6738   10.3666 H         1 UNK         0.0000 
     13 H(2)        5.2111   13.2268    7.9789 H         1 UNK         0.0000 
     14 H(3)        9.0707   11.4057    7.5086 H         1 UNK         0.0000 
     15 H(4)        9.0834   10.8499    9.9156 H         1 UNK         0.0000 
     16 H(5)        7.9406   12.5735    5.8415 H         1 UNK         0.0000 
     17 H(6)        8.1765   11.0986   11.9779 H         1 UNK         0.0000 
     18 H(7)        6.6223   11.5823   14.5866 H         1 UNK         0.0000 
     19 H(8)        7.6974   10.4007   13.9469 H         1 UNK         0.0000 
     20 H(9)        6.0201   10.0347   14.2946 H         1 UNK         0.0000 
     21 O(1)       11.4207    1.3125    9.4321 O.3       1 UNK         0.0000 
     22 O(2)       13.4185    7.4813    9.5479 O.2       1 UNK         0.0000 
     23 N(1)       11.2374    6.8769    9.3602 N.am      1 UNK         0.0000 
     24 C(1)       11.3368    5.4685    9.4114 C.ar      1 UNK         0.0000 
     25 C(2)       12.4190    4.7803    9.9597 C.ar      1 UNK         0.0000 
     26 C(3)       12.4260    3.3885    9.9633 C.ar      1 UNK         0.0000 
     27 C(4)       11.3560    2.6738    9.4309 C.ar      1 UNK         0.0000 
     28 C(5)       10.2604    3.3618    8.9107 C.ar      1 UNK         0.0000 
     29 C(6)       10.2551    4.7493    8.9020 C.ar      1 UNK         0.0000 
     30 C(7)       12.2281    7.7822    9.4070 C.2       1 UNK         0.0000 
     31 C(8)       11.7873    9.2163    9.2860 C.3       1 UNK         0.0000 
     32 H(1)       13.2595    5.3228   10.3744 H         1 UNK         0.0000 
     33 H(2)       13.2768    2.8720   10.3903 H         1 UNK         0.0000 
     34 H(3)        9.4172    2.8125    8.5104 H         1 UNK         0.0000 
     35 H(4)        9.4044    5.2828    8.4961 H         1 UNK         0.0000 
     36 H(5)       10.5473    0.9299    9.2841 H         1 UNK         0.0000 
     37 H(6)       10.3114    7.2404    9.1910 H         1 UNK         0.0000 
     38 H(7)       11.8655    9.6795   10.2352 H         1 UNK         0.0000 
     39 H(8)       10.7905    9.3145    8.9420 H         1 UNK         0.0000 
     40 H(9)       12.4678    9.7340    8.6612 H         1 UNK         0.0000 
     41 O(1)        1.6006   13.5102   15.5017 O.3       1 UNK         0.0000 
     42 O(2)        3.5984   14.7503    9.4577 O.2       1 UNK         0.0000 
     43 N(1)        1.4173   14.8009   10.0886 N.am      1 UNK         0.0000 
     44 C(1)        1.5167   14.4420   11.4515 C.ar      1 UNK         0.0000 
     45 C(2)        2.5989   13.7561   12.0027 C.ar      1 UNK         0.0000 
     46 C(3)        2.6059   13.4474   13.3599 C.ar      1 UNK         0.0000 
     47 C(4)        1.5359   13.8100   14.1738 C.ar      1 UNK         0.0000 
     48 C(5)        0.4403   14.4684   13.6167 C.ar      1 UNK         0.0000 
     49 C(6)        0.4350   14.7813   12.2649 C.ar      1 UNK         0.0000 
     50 C(7)        2.4080   14.9538    9.1951 C.2       1 UNK         0.0000 
     51 C(8)        1.9672   15.3864    7.8224 C.3       1 UNK         0.0000 
     52 H(1)        3.4394   13.4705   11.3824 H         1 UNK         0.0000 
     53 H(2)        3.4567   12.9175   13.7701 H         1 UNK         0.0000 
     54 H(3)       -0.4029   14.7385   14.2404 H         1 UNK         0.0000 
     55 H(4)       -0.4157   15.2944   11.8334 H         1 UNK         0.0000 
     56 H(5)        0.7271   13.5707   15.9075 H         1 UNK         0.0000 
     57 H(6)        0.4913   15.0457    9.7711 H         1 UNK         0.0000 
     58 H(7)        2.0454   14.5620    7.1624 H         1 UNK         0.0000 
     59 H(8)        0.9704   15.7436    7.8021 H         1 UNK         0.0000 
     60 H(9)        2.6477   16.1095    7.4544 H         1 UNK         0.0000 
     61 O(1)        2.7333   10.1494   12.3169 O.3       1 UNK         0.0000 
     62 O(2)        0.7355    3.9806   12.2011 O.2       1 UNK         0.0000 
     63 N(1)        2.9166    4.5850   12.3888 N.am      1 UNK         0.0000 
     64 C(1)        2.8172    5.9935   12.3376 C.ar      1 UNK         0.0000 
     65 C(2)        1.7350    6.6817   11.7893 C.ar      1 UNK         0.0000 
     66 C(3)        1.7280    8.0735   11.7858 C.ar      1 UNK         0.0000 
     67 C(4)        2.7980    8.7881   12.3181 C.ar      1 UNK         0.0000 
     68 C(5)        3.8936    8.1002   12.8383 C.ar      1 UNK         0.0000 
     69 C(6)        3.8989    6.7126   12.8470 C.ar      1 UNK         0.0000 
     70 C(7)        1.9259    3.6797   12.3420 C.2       1 UNK         0.0000 
     71 C(8)        2.3667    2.2456   12.4630 C.3       1 UNK         0.0000 
     72 H(1)        0.8945    6.1391   11.3746 H         1 UNK         0.0000 
     73 H(2)        0.8772    8.5900   11.3587 H         1 UNK         0.0000 
     74 H(3)        4.7368    8.6494   13.2386 H         1 UNK         0.0000 
     75 H(4)        4.7496    6.1791   13.2530 H         1 UNK         0.0000 
     76 H(5)        3.6067   10.5320   12.4649 H         1 UNK         0.0000 
     77 H(6)        3.8426    4.2215   12.5580 H         1 UNK         0.0000 
     78 H(7)        2.2885    1.7825   11.5138 H         1 UNK         0.0000 
     79 H(8)        3.3635    2.1474   12.8070 H         1 UNK         0.0000 
     80 H(9)        1.6862    1.7279   13.0878 H         1 UNK         0.0000 
     81 O(1)        7.0672   18.3650   13.4097 O.3       1 UNK         0.0000 
     82 O(2)        5.0694   17.1249   19.4537 O.2       1 UNK         0.0000 
     83 N(1)        7.2505   17.0743   18.8228 N.am      1 UNK         0.0000 
     84 C(1)        7.1511   17.4332   17.4599 C.ar      1 UNK         0.0000 
     85 C(2)        6.0689   18.1191   16.9087 C.ar      1 UNK         0.0000 
     86 C(3)        6.0619   18.4278   15.5516 C.ar      1 UNK         0.0000 
     87 C(4)        7.1319   18.0652   14.7376 C.ar      1 UNK         0.0000 
     88 C(5)        8.2275   17.4068   15.2947 C.ar      1 UNK         0.0000 
     89 C(6)        8.2328   17.0939   16.6465 C.ar      1 UNK         0.0000 
     90 C(7)        6.2598   16.9215   19.7163 C.2       1 UNK         0.0000 
     91 C(8)        6.7006   16.4888   21.0890 C.3       1 UNK         0.0000 
     92 H(1)        5.2284   18.4047   17.5290 H         1 UNK         0.0000 
     93 H(2)        5.2111   18.9577   15.1413 H         1 UNK         0.0000 
     94 H(3)        9.0707   17.1367   14.6710 H         1 UNK         0.0000 
     95 H(4)        9.0834   16.5809   17.0780 H         1 UNK         0.0000 
     96 H(5)        7.9406   18.3045   13.0039 H         1 UNK         0.0000 
     97 H(6)        8.1765   16.8295   19.1403 H         1 UNK         0.0000 
     98 H(7)        6.6223   17.3133   21.7490 H         1 UNK         0.0000 
     99 H(8)        7.6974   16.1317   21.1093 H         1 UNK         0.0000 
    100 H(9)        6.0201   15.7657   21.4570 H         1 UNK         0.0000 
    101 O(1)       11.4207    7.0435   16.5945 O.3       1 UNK         0.0000 
    102 O(2)       13.4185   13.2123   16.7103 O.2       1 UNK         0.0000 
    103 N(1)       11.2374   12.6079   16.5226 N.am      1 UNK         0.0000 
    104 C(1)       11.3368   11.1994   16.5738 C.ar      1 UNK         0.0000 
    105 C(2)       12.4190   10.5112   17.1221 C.ar      1 UNK         0.0000 
    106 C(3)       12.4260    9.1194   17.1257 C.ar      1 UNK         0.0000 
    107 C(4)       11.3560    8.4048   16.5933 C.ar      1 UNK         0.0000 
    108 C(5)       10.2604    9.0927   16.0731 C.ar      1 UNK         0.0000 
    109 C(6)       10.2551   10.4803   16.0644 C.ar      1 UNK         0.0000 
    110 C(7)       12.2281   13.5132   16.5694 C.2       1 UNK         0.0000 
    111 C(8)       11.7873   14.9473   16.4484 C.3       1 UNK         0.0000 
    112 H(1)       13.2595   11.0538   17.5368 H         1 UNK         0.0000 
    113 H(2)       13.2768    8.6029   17.5527 H         1 UNK         0.0000 
    114 H(3)        9.4172    8.5435   15.6728 H         1 UNK         0.0000 
    115 H(4)        9.4044   11.0138   15.6585 H         1 UNK         0.0000 
    116 H(5)       10.5473    6.6609   16.4465 H         1 UNK         0.0000 
    117 H(6)       10.3114   12.9713   16.3534 H         1 UNK         0.0000 
    118 H(7)       11.8655   15.4104   17.3976 H         1 UNK         0.0000 
    119 H(8)       10.7905   15.0455   16.1044 H         1 UNK         0.0000 
    120 H(9)       12.4678   15.4650   15.8236 H         1 UNK         0.0000 
    121 O(1)        7.0868    4.5589   22.6641 O.3       1 UNK         0.0000 
    122 O(2)        9.0846    5.7989   16.6201 O.2       1 UNK         0.0000 
    123 N(1)        6.9035    5.8496   17.2510 N.am      1 UNK         0.0000 
    124 C(1)        7.0029    5.4907   18.6139 C.ar      1 UNK         0.0000 
    125 C(2)        8.0851    4.8048   19.1651 C.ar      1 UNK         0.0000 
    126 C(3)        8.0921    4.4960   20.5223 C.ar      1 UNK         0.0000 
    127 C(4)        7.0221    4.8587   21.3362 C.ar      1 UNK         0.0000 
    128 C(5)        5.9265    5.5171   20.7791 C.ar      1 UNK         0.0000 
    129 C(6)        5.9212    5.8299   19.4273 C.ar      1 UNK         0.0000 
    130 C(7)        7.8942    6.0024   16.3575 C.2       1 UNK         0.0000 
    131 C(8)        7.4534    6.4350   14.9848 C.3       1 UNK         0.0000 
    132 H(1)        8.9256    4.5191   18.5448 H         1 UNK         0.0000 
    133 H(2)        8.9429    3.9661   20.9325 H         1 UNK         0.0000 
    134 H(3)        5.0833    5.7872   21.4028 H         1 UNK         0.0000 
    135 H(4)        5.0706    6.3430   18.9958 H         1 UNK         0.0000 
    136 H(5)        6.2134    4.6194   23.0699 H         1 UNK         0.0000 
    137 H(6)        5.9775    6.0943   16.9335 H         1 UNK         0.0000 
    138 H(7)        7.5317    5.6106   14.3248 H         1 UNK         0.0000 
    139 H(8)        6.4566    6.7922   14.9645 H         1 UNK         0.0000 
    140 H(9)        8.1339    7.1582   14.6168 H         1 UNK         0.0000 
    141 O(1)        9.8103   15.8804   19.4793 O.3       1 UNK         0.0000 
    142 O(2)        7.8125    9.7116   19.3635 O.2       1 UNK         0.0000 
    143 N(1)        9.9936   10.3160   19.5512 N.am      1 UNK         0.0000 
    144 C(1)        9.8942   11.7244   19.5000 C.ar      1 UNK         0.0000 
    145 C(2)        8.8120   12.4126   18.9517 C.ar      1 UNK         0.0000 
    146 C(3)        8.8050   13.8044   18.9482 C.ar      1 UNK         0.0000 
    147 C(4)        9.8750   14.5191   19.4805 C.ar      1 UNK         0.0000 
    148 C(5)       10.9706   13.8311   20.0007 C.ar      1 UNK         0.0000 
    149 C(6)       10.9759   12.4436   20.0094 C.ar      1 UNK         0.0000 
    150 C(7)        9.0029    9.4107   19.5044 C.2       1 UNK         0.0000 
    151 C(8)        9.4437    7.9766   19.6254 C.3       1 UNK         0.0000 
    152 H(1)        7.9715   11.8701   18.5370 H         1 UNK         0.0000 
    153 H(2)        7.9542   14.3209   18.5211 H         1 UNK         0.0000 
    154 H(3)       11.8138   14.3804   20.4010 H         1 UNK         0.0000 
    155 H(4)       11.8266   11.9101   20.4154 H         1 UNK         0.0000 
    156 H(5)       10.6837   16.2630   19.6273 H         1 UNK         0.0000 
    157 H(6)       10.9196    9.9525   19.7204 H         1 UNK         0.0000 
    158 H(7)        9.3655    7.5134   18.6762 H         1 UNK         0.0000 
    159 H(8)       10.4405    7.8784   19.9694 H         1 UNK         0.0000 
    160 H(9)        8.7632    7.4589   20.2502 H         1 UNK         0.0000 
    161 O(1)        5.4764    9.4136   20.5721 O.3       1 UNK         0.0000 
    162 O(2)        3.4786    8.1736   26.6161 O.2       1 UNK         0.0000 
    163 N(1)        5.6597    8.1229   25.9852 N.am      1 UNK         0.0000 
    164 C(1)        5.5603    8.4818   24.6223 C.ar      1 UNK         0.0000 
    165 C(2)        4.4781    9.1677   24.0711 C.ar      1 UNK         0.0000 
    166 C(3)        4.4711    9.4765   22.7140 C.ar      1 UNK         0.0000 
    167 C(4)        5.5411    9.1138   21.9000 C.ar      1 UNK         0.0000 
    168 C(5)        6.6367    8.4554   22.4571 C.ar      1 UNK         0.0000 
    169 C(6)        6.6420    8.1426   23.8089 C.ar      1 UNK         0.0000 
    170 C(7)        4.6690    7.9701   26.8787 C.2       1 UNK         0.0000 
    171 C(8)        5.1098    7.5375   28.2514 C.3       1 UNK         0.0000 
    172 H(1)        3.6376    9.4534   24.6914 H         1 UNK         0.0000 
    173 H(2)        3.6203   10.0064   22.3037 H         1 UNK         0.0000 
    174 H(3)        7.4799    8.1853   21.8334 H         1 UNK         0.0000 
    175 H(4)        7.4927    7.6295   24.2404 H         1 UNK         0.0000 
    176 H(5)        6.3499    9.3531   20.1663 H         1 UNK         0.0000 
    177 H(6)        6.5857    7.8782   26.3027 H         1 UNK         0.0000 
    178 H(7)        5.0316    8.3619   28.9114 H         1 UNK         0.0000 
    179 H(8)        6.1066    7.1803   28.2717 H         1 UNK         0.0000 
    180 H(9)        4.4293    6.8143   28.6194 H         1 UNK         0.0000 
    181 O(1)        4.3437   12.7745   23.7569 O.3       1 UNK         0.0000 
    182 O(2)        6.3415   18.9433   23.8727 O.2       1 UNK         0.0000 
    183 N(1)        4.1604   18.3389   23.6850 N.am      1 UNK         0.0000 
    184 C(1)        4.2598   16.9304   23.7362 C.ar      1 UNK         0.0000 
    185 C(2)        5.3420   16.2422   24.2845 C.ar      1 UNK         0.0000 
    186 C(3)        5.3490   14.8504   24.2881 C.ar      1 UNK         0.0000 
    187 C(4)        4.2790   14.1358   23.7557 C.ar      1 UNK         0.0000 
    188 C(5)        3.1834   14.8237   23.2355 C.ar      1 UNK         0.0000 
    189 C(6)        3.1781   16.2112   23.2268 C.ar      1 UNK         0.0000 
    190 C(7)        5.1511   19.2442   23.7318 C.2       1 UNK         0.0000 
    191 C(8)        4.7103   20.6783   23.6108 C.3       1 UNK         0.0000 
    192 H(1)        6.1825   16.7847   24.6992 H         1 UNK         0.0000 
    193 H(2)        6.1998   14.3339   24.7151 H         1 UNK         0.0000 
    194 H(3)        2.3402   14.2744   22.8352 H         1 UNK         0.0000 
    195 H(4)        2.3274   16.7448   22.8209 H         1 UNK         0.0000 
    196 H(5)        3.4703   12.3919   23.6089 H         1 UNK         0.0000 
    197 H(6)        3.2344   18.7023   23.5158 H         1 UNK         0.0000 
    198 H(7)        4.7885   21.1414   24.5600 H         1 UNK         0.0000 
    199 H(8)        3.7135   20.7764   23.2668 H         1 UNK         0.0000 
    200 H(9)        5.3908   21.1960   22.9860 H         1 UNK         0.0000 
    201 O(1)        8.6776    7.7793    8.3393 O.3       1 UNK         0.0000 
    202 O(2)       10.6754    9.0193    2.2953 O.2       1 UNK         0.0000 
    203 N(1)        8.4943    9.0700    2.9262 N.am      1 UNK         0.0000 
    204 C(1)        8.5937    8.7111    4.2891 C.ar      1 UNK         0.0000 
    205 C(2)        9.6759    8.0252    4.8403 C.ar      1 UNK         0.0000 
    206 C(3)        9.6829    7.7164    6.1975 C.ar      1 UNK         0.0000 
    207 C(4)        8.6129    8.0791    7.0114 C.ar      1 UNK         0.0000 
    208 C(5)        7.5173    8.7375    6.4543 C.ar      1 UNK         0.0000 
    209 C(6)        7.5120    9.0503    5.1025 C.ar      1 UNK         0.0000 
    210 C(7)        9.4850    9.2228    2.0327 C.2       1 UNK         0.0000 
    211 C(8)        9.0442    9.6554    0.6600 C.3       1 UNK         0.0000 
    212 H(1)       10.5164    7.7395    4.2200 H         1 UNK         0.0000 
    213 H(2)       10.5337    7.1865    6.6077 H         1 UNK         0.0000 
    214 H(3)        6.6741    9.0076    7.0780 H         1 UNK         0.0000 
    215 H(4)        6.6613    9.5634    4.6710 H         1 UNK         0.0000 
    216 H(5)        7.8041    7.8398    8.7451 H         1 UNK         0.0000 
    217 H(6)        7.5683    9.3147    2.6087 H         1 UNK         0.0000 
    218 H(7)        9.1224    8.8310    0.0000 H         1 UNK         0.0000 
    219 H(8)        8.0474   10.0126    0.6397 H         1 UNK         0.0000 
    220 H(9)        9.7247   10.3786    0.2920 H         1 UNK         0.0000 
    221 O(1)       11.4011   19.1008    5.1545 O.3       1 UNK         0.0000 
    222 O(2)        9.4033   12.9320    5.0387 O.2       1 UNK         0.0000 
    223 N(1)       11.5844   13.5364    5.2264 N.am      1 UNK         0.0000 
    224 C(1)       11.4850   14.9448    5.1752 C.ar      1 UNK         0.0000 
    225 C(2)       10.4028   15.6330    4.6269 C.ar      1 UNK         0.0000 
    226 C(3)       10.3958   17.0248    4.6234 C.ar      1 UNK         0.0000 
    227 C(4)       11.4658   17.7395    5.1557 C.ar      1 UNK         0.0000 
    228 C(5)       12.5614   17.0515    5.6759 C.ar      1 UNK         0.0000 
    229 C(6)       12.5667   15.6640    5.6846 C.ar      1 UNK         0.0000 
    230 C(7)       10.5936   12.6311    5.1796 C.2       1 UNK         0.0000 
    231 C(8)       11.0345   11.1969    5.3006 C.3       1 UNK         0.0000 
    232 H(1)        9.5623   15.0905    4.2122 H         1 UNK         0.0000 
    233 H(2)        9.5450   17.5413    4.1963 H         1 UNK         0.0000 
    234 H(3)       13.4046   17.6008    6.0762 H         1 UNK         0.0000 
    235 H(4)       13.4173   15.1305    6.0906 H         1 UNK         0.0000 
    236 H(5)       12.2745   19.4834    5.3025 H         1 UNK         0.0000 
    237 H(6)       12.5104   13.1729    5.3956 H         1 UNK         0.0000 
    238 H(7)       10.9562   10.7338    4.3514 H         1 UNK         0.0000 
    239 H(8)       12.0313   11.0988    5.6446 H         1 UNK         0.0000 
    240 H(9)       10.3540   10.6793    5.9254 H         1 UNK         0.0000 
    241 O(1)        8.6580   27.3164    6.2473 O.3       1 UNK         0.0000 
    242 O(2)        6.6602   26.0763   12.2913 O.2       1 UNK         0.0000 
    243 N(1)        8.8413   26.0256   11.6604 N.am      1 UNK         0.0000 
    244 C(1)        8.7419   26.3846   10.2975 C.ar      1 UNK         0.0000 
    245 C(2)        7.6597   27.0704    9.7463 C.ar      1 UNK         0.0000 
    246 C(3)        7.6527   27.3792    8.3892 C.ar      1 UNK         0.0000 
    247 C(4)        8.7227   27.0165    7.5752 C.ar      1 UNK         0.0000 
    248 C(5)        9.8183   26.3582    8.1323 C.ar      1 UNK         0.0000 
    249 C(6)        9.8236   26.0453    9.4841 C.ar      1 UNK         0.0000 
    250 C(7)        7.8505   25.8728   12.5539 C.2       1 UNK         0.0000 
    251 C(8)        8.2914   25.4402   13.9266 C.3       1 UNK         0.0000 
    252 H(1)        6.8192   27.3561   10.3666 H         1 UNK         0.0000 
    253 H(2)        6.8019   27.9091    7.9789 H         1 UNK         0.0000 
    254 H(3)       10.6615   26.0881    7.5086 H         1 UNK         0.0000 
    255 H(4)       10.6742   25.5322    9.9156 H         1 UNK         0.0000 
    256 H(5)        9.5314   27.2558    5.8415 H         1 UNK         0.0000 
    257 H(6)        9.7673   25.7809   11.9779 H         1 UNK         0.0000 
    258 H(7)        8.2131   26.2646   14.5866 H         1 UNK         0.0000 
    259 H(8)        9.2882   25.0830   13.9469 H         1 UNK         0.0000 
    260 H(9)        7.6109   24.7171   14.2946 H         1 UNK         0.0000 
    261 O(1)       13.0115   15.9949    9.4321 O.3       1 UNK         0.0000 
    262 O(2)       15.0093   22.1637    9.5479 O.2       1 UNK         0.0000 
    263 N(1)       12.8281   21.5592    9.3602 N.am      1 UNK         0.0000 
    264 C(1)       12.9276   20.1508    9.4114 C.ar      1 UNK         0.0000 
    265 C(2)       14.0098   19.4626    9.9597 C.ar      1 UNK         0.0000 
    266 C(3)       14.0168   18.0708    9.9633 C.ar      1 UNK         0.0000 
    267 C(4)       12.9468   17.3562    9.4309 C.ar      1 UNK         0.0000 
    268 C(5)       11.8512   18.0441    8.9107 C.ar      1 UNK         0.0000 
    269 C(6)       11.8458   19.4316    8.9020 C.ar      1 UNK         0.0000 
    270 C(7)       13.8189   22.4646    9.4070 C.2       1 UNK         0.0000 
    271 C(8)       13.3781   23.8987    9.2860 C.3       1 UNK         0.0000 
    272 H(1)       14.8503   20.0051   10.3744 H         1 UNK         0.0000 
    273 H(2)       14.8676   17.5543   10.3903 H         1 UNK         0.0000 
    274 H(3)       11.0080   17.4948    8.5104 H         1 UNK         0.0000 
    275 H(4)       10.9952   19.9652    8.4961 H         1 UNK         0.0000 
    276 H(5)       12.1380   15.6123    9.2841 H         1 UNK         0.0000 
    277 H(6)       11.9022   21.9227    9.1910 H         1 UNK         0.0000 
    278 H(7)       13.4563   24.3618   10.2352 H         1 UNK         0.0000 
    279 H(8)       12.3813   23.9968    8.9420 H         1 UNK         0.0000 
    280 H(9)       14.0585   24.4164    8.6612 H         1 UNK         0.0000 
    281 O(1)        3.1914   28.1926   15.5017 O.3       1 UNK         0.0000 
    282 O(2)        5.1892   29.4326    9.4577 O.2       1 UNK         0.0000 
    283 N(1)        3.0080   29.4833   10.0886 N.am      1 UNK         0.0000 
    284 C(1)        3.1075   29.1244   11.4515 C.ar      1 UNK         0.0000 
    285 C(2)        4.1896   28.4385   12.0027 C.ar      1 UNK         0.0000 
    286 C(3)        4.1967   28.1297   13.3599 C.ar      1 UNK         0.0000 
    287 C(4)        3.1267   28.4924   14.1738 C.ar      1 UNK         0.0000 
    288 C(5)        2.0310   29.1508   13.6167 C.ar      1 UNK         0.0000 
    289 C(6)        2.0257   29.4636   12.2649 C.ar      1 UNK         0.0000 
    290 C(7)        3.9988   29.6361    9.1951 C.2       1 UNK         0.0000 
    291 C(8)        3.5580   30.0687    7.8224 C.3       1 UNK         0.0000 
    292 H(1)        5.0302   28.1528   11.3824 H         1 UNK         0.0000 
    293 H(2)        5.0475   27.5998   13.7701 H         1 UNK         0.0000 
    294 H(3)        1.1879   29.4209   14.2404 H         1 UNK         0.0000 
    295 H(4)        1.1751   29.9767   11.8334 H         1 UNK         0.0000 
    296 H(5)        2.3179   28.2531   15.9075 H         1 UNK         0.0000 
    297 H(6)        2.0821   29.7280    9.7711 H         1 UNK         0.0000 
    298 H(7)        3.6362   29.2443    7.1624 H         1 UNK         0.0000 
    299 H(8)        2.5612   30.4259    7.8021 H         1 UNK         0.0000 
    300 H(9)        4.2384   30.7919    7.4544 H         1 UNK         0.0000 
    301 O(1)        4.3241   24.8317   12.3169 O.3       1 UNK         0.0000 
    302 O(2)        2.3263   18.6629   12.2011 O.2       1 UNK         0.0000 
    303 N(1)        4.5074   19.2673   12.3888 N.am      1 UNK         0.0000 
    304 C(1)        4.4080   20.6758   12.3376 C.ar      1 UNK         0.0000 
    305 C(2)        3.3258   21.3640   11.7893 C.ar      1 UNK         0.0000 
    306 C(3)        3.3188   22.7558   11.7858 C.ar      1 UNK         0.0000 
    307 C(4)        4.3888   23.4704   12.3181 C.ar      1 UNK         0.0000 
    308 C(5)        5.4844   22.7825   12.8383 C.ar      1 UNK         0.0000 
    309 C(6)        5.4897   21.3950   12.8470 C.ar      1 UNK         0.0000 
    310 C(7)        3.5166   18.3620   12.3420 C.2       1 UNK         0.0000 
    311 C(8)        3.9575   16.9279   12.4630 C.3       1 UNK         0.0000 
    312 H(1)        2.4853   20.8215   11.3746 H         1 UNK         0.0000 
    313 H(2)        2.4680   23.2723   11.3587 H         1 UNK         0.0000 
    314 H(3)        6.3276   23.3317   13.2386 H         1 UNK         0.0000 
    315 H(4)        6.3403   20.8614   13.2530 H         1 UNK         0.0000 
    316 H(5)        5.1975   25.2143   12.4649 H         1 UNK         0.0000 
    317 H(6)        5.4334   18.9039   12.5580 H         1 UNK         0.0000 
    318 H(7)        3.8792   16.4648   11.5138 H         1 UNK         0.0000 
    319 H(8)        4.9543   16.8298   12.8070 H         1 UNK         0.0000 
    320 H(9)        3.2770   16.4102   13.0878 H         1 UNK         0.0000 
    321 O(1)        8.6580   33.0473   13.4097 O.3       1 UNK         0.0000 
    322 O(2)        6.6602   31.8072   19.4537 O.2       1 UNK         0.0000 
    323 N(1)        8.8413   31.7566   18.8228 N.am      1 UNK         0.0000 
    324 C(1)        8.7419   32.1155   17.4599 C.ar      1 UNK         0.0000 
    325 C(2)        7.6597   32.8014   16.9087 C.ar      1 UNK         0.0000 
    326 C(3)        7.6527   33.1102   15.5516 C.ar      1 UNK         0.0000 
    327 C(4)        8.7227   32.7475   14.7376 C.ar      1 UNK         0.0000 
    328 C(5)        9.8183   32.0891   15.2947 C.ar      1 UNK         0.0000 
    329 C(6)        9.8236   31.7763   16.6465 C.ar      1 UNK         0.0000 
    330 C(7)        7.8505   31.6038   19.7163 C.2       1 UNK         0.0000 
    331 C(8)        8.2914   31.1711   21.0890 C.3       1 UNK         0.0000 
    332 H(1)        6.8192   33.0871   17.5290 H         1 UNK         0.0000 
    333 H(2)        6.8019   33.6401   15.1413 H         1 UNK         0.0000 
    334 H(3)       10.6615   31.8190   14.6710 H         1 UNK         0.0000 
    335 H(4)       10.6742   31.2632   17.0780 H         1 UNK         0.0000 
    336 H(5)        9.5314   32.9868   13.0039 H         1 UNK         0.0000 
    337 H(6)        9.7673   31.5119   19.1403 H         1 UNK         0.0000 
    338 H(7)        8.2131   31.9956   21.7490 H         1 UNK         0.0000 
    339 H(8)        9.2882   30.8140   21.1093 H         1 UNK         0.0000 
    340 H(9)        7.6109   30.4480   21.4570 H         1 UNK         0.0000 
    341 O(1)       13.0115   21.7258   16.5945 O.3       1 UNK         0.0000 
    342 O(2)       15.0093   27.8946   16.7103 O.2       1 UNK         0.0000 
    343 N(1)       12.8281   27.2902   16.5226 N.am      1 UNK         0.0000 
    344 C(1)       12.9276   25.8818   16.5738 C.ar      1 UNK         0.0000 
    345 C(2)       14.0098   25.1936   17.1221 C.ar      1 UNK         0.0000 
    346 C(3)       14.0168   23.8017   17.1257 C.ar      1 UNK         0.0000 
    347 C(4)       12.9468   23.0871   16.5933 C.ar      1 UNK         0.0000 
    348 C(5)       11.8512   23.7751   16.0731 C.ar      1 UNK         0.0000 
    349 C(6)       11.8458   25.1626   16.0644 C.ar      1 UNK         0.0000 
    350 C(7)       13.8189   28.1955   16.5694 C.2       1 UNK         0.0000 
    351 C(8)       13.3781   29.6296   16.4484 C.3       1 UNK         0.0000 
    352 H(1)       14.8503   25.7361   17.5368 H         1 UNK         0.0000 
    353 H(2)       14.8676   23.2853   17.5527 H         1 UNK         0.0000 
    354 H(3)       11.0080   23.2258   15.6728 H         1 UNK         0.0000 
    355 H(4)       10.9952   25.6961   15.6585 H         1 UNK         0.0000 
    356 H(5)       12.1380   21.3432   16.4465 H         1 UNK         0.0000 
    357 H(6)       11.9022   27.6537   16.3534 H         1 UNK         0.0000 
    358 H(7)       13.4563   30.0928   17.3976 H         1 UNK         0.0000 
    359 H(8)       12.3813   29.7278   16.1044 H         1 UNK         0.0000 
    360 H(9)       14.0585   30.1473   15.8236 H         1 UNK         0.0000 
    361 O(1)        8.6776   19.2412   22.6641 O.3       1 UNK         0.0000 
    362 O(2)       10.6754   20.4813   16.6201 O.2       1 UNK         0.0000 
    363 N(1)        8.4943   20.5319   17.2510 N.am      1 UNK         0.0000 
    364 C(1)        8.5937   20.1730   18.6139 C.ar      1 UNK         0.0000 
    365 C(2)        9.6759   19.4871   19.1651 C.ar      1 UNK         0.0000 
    366 C(3)        9.6829   19.1784   20.5223 C.ar      1 UNK         0.0000 
    367 C(4)        8.6129   19.5410   21.3362 C.ar      1 UNK         0.0000 
    368 C(5)        7.5173   20.1994   20.7791 C.ar      1 UNK         0.0000 
    369 C(6)        7.5120   20.5123   19.4273 C.ar      1 UNK         0.0000 
    370 C(7)        9.4850   20.6847   16.3575 C.2       1 UNK         0.0000 
    371 C(8)        9.0442   21.1174   14.9848 C.3       1 UNK         0.0000 
    372 H(1)       10.5164   19.2015   18.5448 H         1 UNK         0.0000 
    373 H(2)       10.5337   18.6484   20.9325 H         1 UNK         0.0000 
    374 H(3)        6.6741   20.4695   21.4028 H         1 UNK         0.0000 
    375 H(4)        6.6613   21.0253   18.9958 H         1 UNK         0.0000 
    376 H(5)        7.8041   19.3017   23.0699 H         1 UNK         0.0000 
    377 H(6)        7.5683   20.7767   16.9335 H         1 UNK         0.0000 
    378 H(7)        9.1224   20.2929   14.3248 H         1 UNK         0.0000 
    379 H(8)        8.0474   21.4745   14.9645 H         1 UNK         0.0000 
    380 H(9)        9.7247   21.8405   14.6168 H         1 UNK         0.0000 
    381 O(1)       11.4011   30.5627   19.4793 O.3       1 UNK         0.0000 
    382 O(2)        9.4033   24.3939   19.3635 O.2       1 UNK         0.0000 
    383 N(1)       11.5844   24.9983   19.5512 N.am      1 UNK         0.0000 
    384 C(1)       11.4850   26.4068   19.5000 C.ar      1 UNK         0.0000 
    385 C(2)       10.4028   27.0950   18.9517 C.ar      1 UNK         0.0000 
    386 C(3)       10.3958   28.4868   18.9482 C.ar      1 UNK         0.0000 
    387 C(4)       11.4658   29.2014   19.4805 C.ar      1 UNK         0.0000 
    388 C(5)       12.5614   28.5135   20.0007 C.ar      1 UNK         0.0000 
    389 C(6)       12.5667   27.1259   20.0094 C.ar      1 UNK         0.0000 
    390 C(7)       10.5936   24.0930   19.5044 C.2       1 UNK         0.0000 
    391 C(8)       11.0345   22.6589   19.6254 C.3       1 UNK         0.0000 
    392 H(1)        9.5623   26.5524   18.5370 H         1 UNK         0.0000 
    393 H(2)        9.5450   29.0033   18.5211 H         1 UNK         0.0000 
    394 H(3)       13.4046   29.0627   20.4010 H         1 UNK         0.0000 
    395 H(4)       13.4173   26.5924   20.4154 H         1 UNK         0.0000 
    396 H(5)       12.2745   30.9453   19.6273 H         1 UNK         0.0000 
    397 H(6)       12.5104   24.6348   19.7204 H         1 UNK         0.0000 
    398 H(7)       10.9562   22.1958   18.6762 H         1 UNK         0.0000 
    399 H(8)       12.0313   22.5607   19.9694 H         1 UNK         0.0000 
    400 H(9)       10.3540   22.1412   20.2502 H         1 UNK         0.0000 
    401 O(1)        7.0672   24.0960   20.5721 O.3       1 UNK         0.0000 
    402 O(2)        5.0694   22.8559   26.6161 O.2       1 UNK         0.0000 
    403 N(1)        7.2505   22.8052   25.9852 N.am      1 UNK         0.0000 
    404 C(1)        7.1511   23.1642   24.6223 C.ar      1 UNK         0.0000 
    405 C(2)        6.0689   23.8500   24.0711 C.ar      1 UNK         0.0000 
    406 C(3)        6.0619   24.1588   22.7140 C.ar      1 UNK         0.0000 
    407 C(4)        7.1319   23.7962   21.9000 C.ar      1 UNK         0.0000 
    408 C(5)        8.2275   23.1378   22.4571 C.ar      1 UNK         0.0000 
    409 C(6)        8.2328   22.8249   23.8089 C.ar      1 UNK         0.0000 
    410 C(7)        6.2598   22.6524   26.8787 C.2       1 UNK         0.0000 
    411 C(8)        6.7006   22.2198   28.2514 C.3       1 UNK         0.0000 
    412 H(1)        5.2284   24.1357   24.6914 H         1 UNK         0.0000 
    413 H(2)        5.2111   24.6887   22.3037 H         1 UNK         0.0000 
    414 H(3)        9.0707   22.8677   21.8334 H         1 UNK         0.0000 
    415 H(4)        9.0834   22.3118   24.2404 H         1 UNK         0.0000 
    416 H(5)        7.9406   24.0354   20.1663 H         1 UNK         0.0000 
    417 H(6)        8.1765   22.5605   26.3027 H         1 UNK         0.0000 
    418 H(7)        6.6223   23.0442   28.9114 H         1 UNK         0.0000 
    419 H(8)        7.6974   21.8626   28.2717 H         1 UNK         0.0000 
    420 H(9)        6.0201   21.4967   28.6194 H         1 UNK         0.0000 
    421 O(1)        5.9345   27.4568   23.7569 O.3       1 UNK         0.0000 
    422 O(2)        7.9323   33.6256   23.8727 O.2       1 UNK         0.0000 
    423 N(1)        5.7511   33.0212   23.6850 N.am      1 UNK         0.0000 
    424 C(1)        5.8506   31.6127   23.7362 C.ar      1 UNK         0.0000 
    425 C(2)        6.9328   30.9245   24.2845 C.ar      1 UNK         0.0000 
    426 C(3)        6.9398   29.5327   24.2881 C.ar      1 UNK         0.0000 
    427 C(4)        5.8698   28.8181   23.7557 C.ar      1 UNK         0.0000 
    428 C(5)        4.7742   29.5060   23.2355 C.ar      1 UNK         0.0000 
    429 C(6)        4.7688   30.8936   23.2268 C.ar      1 UNK         0.0000 
    430 C(7)        6.7419   33.9265   23.7318 C.2       1 UNK         0.0000 
    431 C(8)        6.3011   35.3606   23.6108 C.3       1 UNK         0.0000 
    432 H(1)        7.7733   31.4671   24.6992 H         1 UNK         0.0000 
    433 H(2)        7.7906   29.0162   24.7151 H         1 UNK         0.0000 
    434 H(3)        3.9310   28.9568   22.8352 H         1 UNK         0.0000 
    435 H(4)        3.9182   31.4271   22.8209 H         1 UNK         0.0000 
    436 H(5)        5.0610   27.0742   23.6089 H         1 UNK         0.0000 
    437 H(6)        4.8252   33.3846   23.5158 H         1 UNK         0.0000 
    438 H(7)        6.3793   35.8237   24.5600 H         1 UNK         0.0000 
    439 H(8)        5.3043   35.4588   23.2668 H         1 UNK         0.0000 
    440 H(9)        6.9815   35.8783   22.9860 H         1 UNK         0.0000 
    441 O(1)       10.2684   22.4616    8.3393 O.3       1 UNK         0.0000 
    442 O(2)       12.2662   23.7017    2.2953 O.2       1 UNK         0.0000 
    443 N(1)       10.0850   23.7523    2.9262 N.am      1 UNK         0.0000 
    444 C(1)       10.1845   23.3934    4.2891 C.ar      1 UNK         0.0000 
    445 C(2)       11.2666   22.7075    4.8403 C.ar      1 UNK         0.0000 
    446 C(3)       11.2737   22.3988    6.1975 C.ar      1 UNK         0.0000 
    447 C(4)       10.2037   22.7614    7.0114 C.ar      1 UNK         0.0000 
    448 C(5)        9.1080   23.4198    6.4543 C.ar      1 UNK         0.0000 
    449 C(6)        9.1027   23.7327    5.1025 C.ar      1 UNK         0.0000 
    450 C(7)       11.0758   23.9051    2.0327 C.2       1 UNK         0.0000 
    451 C(8)       10.6350   24.3378    0.6600 C.3       1 UNK         0.0000 
    452 H(1)       12.1072   22.4219    4.2200 H         1 UNK         0.0000 
    453 H(2)       12.1245   21.8688    6.6077 H         1 UNK         0.0000 
    454 H(3)        8.2649   23.6899    7.0780 H         1 UNK         0.0000 
    455 H(4)        8.2521   24.2457    4.6710 H         1 UNK         0.0000 
    456 H(5)        9.3949   22.5221    8.7451 H         1 UNK         0.0000 
    457 H(6)        9.1591   23.9971    2.6087 H         1 UNK         0.0000 
    458 H(7)       10.7132   23.5133    0.0000 H         1 UNK         0.0000 
    459 H(8)        9.6382   24.6949    0.6397 H         1 UNK         0.0000 
    460 H(9)       11.3154   25.0609    0.2920 H         1 UNK         0.0000 
    461 O(1)       12.9919   33.7831    5.1545 O.3       1 UNK         0.0000 
    462 O(2)       10.9941   27.6143    5.0387 O.2       1 UNK         0.0000 
    463 N(1)       13.1752   28.2187    5.2264 N.am      1 UNK         0.0000 
    464 C(1)       13.0757   29.6272    5.1752 C.ar      1 UNK         0.0000 
    465 C(2)       11.9936   30.3154    4.6269 C.ar      1 UNK         0.0000 
    466 C(3)       11.9866   31.7072    4.6234 C.ar      1 UNK         0.0000 
    467 C(4)       13.0566   32.4218    5.1557 C.ar      1 UNK         0.0000 
    468 C(5)       14.1522   31.7339    5.6759 C.ar      1 UNK         0.0000 
    469 C(6)       14.1575   30.3463    5.6846 C.ar      1 UNK         0.0000 
    470 C(7)       12.1844   27.3134    5.1796 C.2       1 UNK         0.0000 
    471 C(8)       12.6253   25.8793    5.3006 C.3       1 UNK         0.0000 
    472 H(1)       11.1531   29.7728    4.2122 H         1 UNK         0.0000 
    473 H(2)       11.1358   32.2236    4.1963 H         1 UNK         0.0000 
    474 H(3)       14.9954   32.2831    6.0762 H         1 UNK         0.0000 
    475 H(4)       15.0081   29.8128    6.0906 H         1 UNK         0.0000 
    476 H(5)       13.8653   34.1657    5.3025 H         1 UNK         0.0000 
    477 H(6)       14.1012   27.8552    5.3956 H         1 UNK         0.0000 
    478 H(7)       12.5470   25.4162    4.3514 H         1 UNK         0.0000 
    479 H(8)       13.6221   25.7811    5.6446 H         1 UNK         0.0000 
    480 H(9)       11.9448   25.3616    5.9254 H         1 UNK         0.0000 
    481 O(1)       10.2488   41.9987    6.2473 O.3       1 UNK         0.0000 
    482 O(2)        8.2510   40.7586   12.2913 O.2       1 UNK         0.0000 
    483 N(1)       10.4321   40.7080   11.6604 N.am      1 UNK         0.0000 
    484 C(1)       10.3326   41.0669   10.2975 C.ar      1 UNK         0.0000 
    485 C(2)        9.2505   41.7528    9.7463 C.ar      1 UNK         0.0000 
    486 C(3)        9.2435   42.0615    8.3892 C.ar      1 UNK         0.0000 
    487 C(4)       10.3135   41.6989    7.5752 C.ar      1 UNK         0.0000 
    488 C(5)       11.4091   41.0405    8.1323 C.ar      1 UNK         0.0000 
    489 C(6)       11.4144   40.7276    9.4841 C.ar      1 UNK         0.0000 
    490 C(7)        9.4413   40.5551   12.5539 C.2       1 UNK         0.0000 
    491 C(8)        9.8822   40.1225   13.9266 C.3       1 UNK         0.0000 
    492 H(1)        8.4100   42.0384   10.3666 H         1 UNK         0.0000 
    493 H(2)        8.3926   42.5914    7.9789 H         1 UNK         0.0000 
    494 H(3)       12.2523   40.7704    7.5086 H         1 UNK         0.0000 
    495 H(4)       12.2650   40.2146    9.9156 H         1 UNK         0.0000 
    496 H(5)       11.1222   41.9382    5.8415 H         1 UNK         0.0000 
    497 H(6)       11.3581   40.4632   11.9779 H         1 UNK         0.0000 
    498 H(7)        9.8039   40.9470   14.5866 H         1 UNK         0.0000 
    499 H(8)       10.8790   39.7654   13.9469 H         1 UNK         0.0000 
    500 H(9)        9.2017   39.3994   14.2946 H         1 UNK         0.0000 
    501 O(1)       14.6023   30.6772    9.4321 O.3       1 UNK         0.0000 
    502 O(2)       16.6001   36.8460    9.5479 O.2       1 UNK         0.0000 
    503 N(1)       14.4189   36.2416    9.3602 N.am      1 UNK         0.0000 
    504 C(1)       14.5184   34.8331    9.4114 C.ar      1 UNK         0.0000 
    505 C(2)       15.6005   34.1449    9.9597 C.ar      1 UNK         0.0000 
    506 C(3)       15.6076   32.7531    9.9633 C.ar      1 UNK         0.0000 
    507 C(4)       14.5375   32.0385    9.4309 C.ar      1 UNK         0.0000 
    508 C(5)       13.4419   32.7264    8.9107 C.ar      1 UNK         0.0000 
    509 C(6)       13.4366   34.1140    8.9020 C.ar      1 UNK         0.0000 
    510 C(7)       15.4097   37.1469    9.4070 C.2       1 UNK         0.0000 
    511 C(8)       14.9688   38.5810    9.2860 C.3       1 UNK         0.0000 
    512 H(1)       16.4411   34.6875   10.3744 H         1 UNK         0.0000 
    513 H(2)       16.4584   32.2366   10.3903 H         1 UNK         0.0000 
    514 H(3)       12.5988   32.1772    8.5104 H         1 UNK         0.0000 
    515 H(4)       12.5860   34.6475    8.4961 H         1 UNK         0.0000 
    516 H(5)       13.7288   30.2946    9.2841 H         1 UNK         0.0000 
    517 H(6)       13.4930   36.6050    9.1910 H         1 UNK         0.0000 
    518 H(7)       15.0471   39.0441   10.2352 H         1 UNK         0.0000 
    519 H(8)       13.9721   38.6792    8.9420 H         1 UNK         0.0000 
    520 H(9)       15.6493   39.0987    8.6612 H         1 UNK         0.0000 
    521 O(1)        4.7822   42.8749   15.5017 O.3       1 UNK         0.0000 
    522 O(2)        6.7800   44.1150    9.4577 O.2       1 UNK         0.0000 
    523 N(1)        4.5988   44.1656   10.0886 N.am      1 UNK         0.0000 
    524 C(1)        4.6983   43.8067   11.4515 C.ar      1 UNK         0.0000 
    525 C(2)        5.7804   43.1208   12.0027 C.ar      1 UNK         0.0000 
    526 C(3)        5.7875   42.8120   13.3599 C.ar      1 UNK         0.0000 
    527 C(4)        4.7174   43.1747   14.1738 C.ar      1 UNK         0.0000 
    528 C(5)        3.6218   43.8331   13.6167 C.ar      1 UNK         0.0000 
    529 C(6)        3.6165   44.1460   12.2649 C.ar      1 UNK         0.0000 
    530 C(7)        5.5896   44.3184    9.1951 C.2       1 UNK         0.0000 
    531 C(8)        5.1487   44.7511    7.8224 C.3       1 UNK         0.0000 
    532 H(1)        6.6210   42.8352   11.3824 H         1 UNK         0.0000 
    533 H(2)        6.6383   42.2821   13.7701 H         1 UNK         0.0000 
    534 H(3)        2.7787   44.1032   14.2404 H         1 UNK         0.0000 
    535 H(4)        2.7659   44.6590   11.8334 H         1 UNK         0.0000 
    536 H(5)        3.9087   42.9354   15.9075 H         1 UNK         0.0000 
    537 H(6)        3.6729   44.4103    9.7711 H         1 UNK         0.0000 
    538 H(7)        5.2270   43.9266    7.1624 H         1 UNK         0.0000 
    539 H(8)        4.1520   45.1082    7.8021 H         1 UNK         0.0000 
    540 H(9)        5.8292   45.4742    7.4544 H         1 UNK         0.0000 
    541 O(1)        5.9149   39.5141   12.3169 O.3       1 UNK         0.0000 
    542 O(2)        3.9171   33.3453   12.2011 O.2       1 UNK         0.0000 
    543 N(1)        6.0982   33.9497   12.3888 N.am      1 UNK         0.0000 
    544 C(1)        5.9987   35.3581   12.3376 C.ar      1 UNK         0.0000 
    545 C(2)        4.9166   36.0463   11.7893 C.ar      1 UNK         0.0000 
    546 C(3)        4.9096   37.4381   11.7858 C.ar      1 UNK         0.0000 
    547 C(4)        5.9796   38.1527   12.3181 C.ar      1 UNK         0.0000 
    548 C(5)        7.0752   37.4648   12.8383 C.ar      1 UNK         0.0000 
    549 C(6)        7.0805   36.0773   12.8470 C.ar      1 UNK         0.0000 
    550 C(7)        5.1074   33.0444   12.3420 C.2       1 UNK         0.0000 
    551 C(8)        5.5483   31.6102   12.4630 C.3       1 UNK         0.0000 
    552 H(1)        4.0761   35.5038   11.3746 H         1 UNK         0.0000 
    553 H(2)        4.0588   37.9546   11.3587 H         1 UNK         0.0000 
    554 H(3)        7.9184   38.0141   13.2386 H         1 UNK         0.0000 
    555 H(4)        7.9311   35.5438   13.2530 H         1 UNK         0.0000 
    556 H(5)        6.7883   39.8967   12.4649 H         1 UNK         0.0000 
    557 H(6)        7.0242   33.5862   12.5580 H         1 UNK         0.0000 
    558 H(7)        5.4700   31.1471   11.5138 H         1 UNK         0.0000 
    559 H(8)        6.5451   31.5121   12.8070 H         1 UNK         0.0000 
    560 H(9)        4.8678   31.0926   13.0878 H         1 UNK         0.0000 
    561 O(1)       10.2488   47.7297   13.4097 O.3       1 UNK         0.0000 
    562 O(2)        8.2510   46.4896   19.4537 O.2       1 UNK         0.0000 
    563 N(1)       10.4321   46.4389   18.8228 N.am      1 UNK         0.0000 
    564 C(1)       10.3326   46.7979   17.4599 C.ar      1 UNK         0.0000 
    565 C(2)        9.2505   47.4837   16.9087 C.ar      1 UNK         0.0000 
    566 C(3)        9.2435   47.7925   15.5516 C.ar      1 UNK         0.0000 
    567 C(4)       10.3135   47.4298   14.7376 C.ar      1 UNK         0.0000 
    568 C(5)       11.4091   46.7715   15.2947 C.ar      1 UNK         0.0000 
    569 C(6)       11.4144   46.4586   16.6465 C.ar      1 UNK         0.0000 
    570 C(7)        9.4413   46.2861   19.7163 C.2       1 UNK         0.0000 
    571 C(8)        9.8822   45.8535   21.0890 C.3       1 UNK         0.0000 
    572 H(1)        8.4100   47.7694   17.5290 H         1 UNK         0.0000 
    573 H(2)        8.3926   48.3224   15.1413 H         1 UNK         0.0000 
    574 H(3)       12.2523   46.5014   14.6710 H         1 UNK         0.0000 
    575 H(4)       12.2650   45.9455   17.0780 H         1 UNK         0.0000 
    576 H(5)       11.1222   47.6691   13.0039 H         1 UNK         0.0000 
    577 H(6)       11.3581   46.1942   19.1403 H         1 UNK         0.0000 
    578 H(7)        9.8039   46.6779   21.7490 H         1 UNK         0.0000 
    579 H(8)       10.8790   45.4963   21.1093 H         1 UNK         0.0000 
    580 H(9)        9.2017   45.1304   21.4570 H         1 UNK         0.0000 
    581 O(1)       14.6023   36.4082   16.5945 O.3       1 UNK         0.0000 
    582 O(2)       16.6001   42.5769   16.7103 O.2       1 UNK         0.0000 
    583 N(1)       14.4189   41.9725   16.5226 N.am      1 UNK         0.0000 
    584 C(1)       14.5184   40.5641   16.5738 C.ar      1 UNK         0.0000 
    585 C(2)       15.6005   39.8759   17.1221 C.ar      1 UNK         0.0000 
    586 C(3)       15.6076   38.4841   17.1257 C.ar      1 UNK         0.0000 
    587 C(4)       14.5375   37.7695   16.5933 C.ar      1 UNK         0.0000 
    588 C(5)       13.4419   38.4574   16.0731 C.ar      1 UNK         0.0000 
    589 C(6)       13.4366   39.8449   16.0644 C.ar      1 UNK         0.0000 
    590 C(7)       15.4097   42.8779   16.5694 C.2       1 UNK         0.0000 
    591 C(8)       14.9688   44.3120   16.4484 C.3       1 UNK         0.0000 
    592 H(1)       16.4411   40.4184   17.5368 H         1 UNK         0.0000 
    593 H(2)       16.4584   37.9676   17.5527 H         1 UNK         0.0000 
    594 H(3)       12.5988   37.9081   15.6728 H         1 UNK         0.0000 
    595 H(4)       12.5860   40.3784   15.6585 H         1 UNK         0.0000 
    596 H(5)       13.7288   36.0256   16.4465 H         1 UNK         0.0000 
    597 H(6)       13.4930   42.3360   16.3534 H         1 UNK         0.0000 
    598 H(7)       15.0471   44.7751   17.3976 H         1 UNK         0.0000 
    599 H(8)       13.9721   44.4101   16.1044 H         1 UNK         0.0000 
    600 H(9)       15.6493   44.8296   15.8236 H         1 UNK         0.0000 
    601 O(1)       10.2684   33.9235   22.6641 O.3       1 UNK         0.0000 
    602 O(2)       12.2662   35.1636   16.6201 O.2       1 UNK         0.0000 
    603 N(1)       10.0850   35.2142   17.2510 N.am      1 UNK         0.0000 
    604 C(1)       10.1845   34.8553   18.6139 C.ar      1 UNK         0.0000 
    605 C(2)       11.2666   34.1694   19.1651 C.ar      1 UNK         0.0000 
    606 C(3)       11.2737   33.8607   20.5223 C.ar      1 UNK         0.0000 
    607 C(4)       10.2037   34.2233   21.3362 C.ar      1 UNK         0.0000 
    608 C(5)        9.1080   34.8817   20.7791 C.ar      1 UNK         0.0000 
    609 C(6)        9.1027   35.1946   19.4273 C.ar      1 UNK         0.0000 
    610 C(7)       11.0758   35.3671   16.3575 C.2       1 UNK         0.0000 
    611 C(8)       10.6350   35.7997   14.9848 C.3       1 UNK         0.0000 
    612 H(1)       12.1072   33.8838   18.5448 H         1 UNK         0.0000 
    613 H(2)       12.1245   33.3308   20.9325 H         1 UNK         0.0000 
    614 H(3)        8.2649   35.1518   21.4028 H         1 UNK         0.0000 
    615 H(4)        8.2521   35.7077   18.9958 H         1 UNK         0.0000 
    616 H(5)        9.3949   33.9840   23.0699 H         1 UNK         0.0000 
    617 H(6)        9.1591   35.4590   16.9335 H         1 UNK         0.0000 
    618 H(7)       10.7132   34.9753   14.3248 H         1 UNK         0.0000 
    619 H(8)        9.6382   36.1568   14.9645 H         1 UNK         0.0000 
    620 H(9)       11.3154   36.5228   14.6168 H         1 UNK         0.0000 
    621 O(1)       12.9919   45.2450   19.4793 O.3       1 UNK         0.0000 
    622 O(2)       10.9941   39.0762   19.3635 O.2       1 UNK         0.0000 
    623 N(1)       13.1752   39.6806   19.5512 N.am      1 UNK         0.0000 
    624 C(1)       13.0757   41.0891   19.5000 C.ar      1 UNK         0.0000 
    625 C(2)       11.9936   41.7773   18.9517 C.ar      1 UNK         0.0000 
    626 C(3)       11.9866   43.1691   18.9482 C.ar      1 UNK         0.0000 
    627 C(4)       13.0566   43.8837   19.4805 C.ar      1 UNK         0.0000 
    628 C(5)       14.1522   43.1958   20.0007 C.ar      1 UNK         0.0000 
    629 C(6)       14.1575   41.8082   20.0094 C.ar      1 UNK         0.0000 
    630 C(7)       12.1844   38.7753   19.5044 C.2       1 UNK         0.0000 
    631 C(8)       12.6253   37.3412   19.6254 C.3       1 UNK         0.0000 
    632 H(1)       11.1531   41.2348   18.5370 H         1 UNK         0.0000 
    633 H(2)       11.1358   43.6856   18.5211 H         1 UNK         0.0000 
    634 H(3)       14.9954   43.7450   20.4010 H         1 UNK         0.0000 
    635 H(4)       15.0081   41.2747   20.4154 H         1 UNK         0.0000 
    636 H(5)       13.8653   45.6276   19.6273 H         1 UNK         0.0000 
    637 H(6)       14.1012   39.3172   19.7204 H         1 UNK         0.0000 
    638 H(7)       12.5470   36.8781   18.6762 H         1 UNK         0.0000 
    639 H(8)       13.6221   37.2431   19.9694 H         1 UNK         0.0000 
    640 H(9)       11.9448   36.8235   20.2502 H         1 UNK         0.0000 
    641 O(1)        8.6580   38.7783   20.5721 O.3       1 UNK         0.0000 
    642 O(2)        6.6602   37.5382   26.6161 O.2       1 UNK         0.0000 
    643 N(1)        8.8413   37.4876   25.9852 N.am      1 UNK         0.0000 
    644 C(1)        8.7419   37.8465   24.6223 C.ar      1 UNK         0.0000 
    645 C(2)        7.6597   38.5324   24.0711 C.ar      1 UNK         0.0000 
    646 C(3)        7.6527   38.8411   22.7140 C.ar      1 UNK         0.0000 
    647 C(4)        8.7227   38.4785   21.9000 C.ar      1 UNK         0.0000 
    648 C(5)        9.8183   37.8201   22.4571 C.ar      1 UNK         0.0000 
    649 C(6)        9.8236   37.5072   23.8089 C.ar      1 UNK         0.0000 
    650 C(7)        7.8505   37.3347   26.8787 C.2       1 UNK         0.0000 
    651 C(8)        8.2914   36.9021   28.2514 C.3       1 UNK         0.0000 
    652 H(1)        6.8192   38.8180   24.6914 H         1 UNK         0.0000 
    653 H(2)        6.8019   39.3710   22.3037 H         1 UNK         0.0000 
    654 H(3)       10.6615   37.5500   21.8334 H         1 UNK         0.0000 
    655 H(4)       10.6742   36.9942   24.2404 H         1 UNK         0.0000 
    656 H(5)        9.5314   38.7178   20.1663 H         1 UNK         0.0000 
    657 H(6)        9.7673   37.2428   26.3027 H         1 UNK         0.0000 
    658 H(7)        8.2131   37.7266   28.9114 H         1 UNK         0.0000 
    659 H(8)        9.2882   36.5450   28.2717 H         1 UNK         0.0000 
    660 H(9)        7.6109   36.1790   28.6194 H         1 UNK         0.0000 
    661 O(1)        7.5253   42.1391   23.7569 O.3       1 UNK         0.0000 
    662 O(2)        9.5231   48.3079   23.8727 O.2       1 UNK         0.0000 
    663 N(1)        7.3419   47.7035   23.6850 N.am      1 UNK         0.0000 
    664 C(1)        7.4414   46.2951   23.7362 C.ar      1 UNK         0.0000 
    665 C(2)        8.5235   45.6068   24.2845 C.ar      1 UNK         0.0000 
    666 C(3)        8.5306   44.2150   24.2881 C.ar      1 UNK         0.0000 
    667 C(4)        7.4605   43.5004   23.7557 C.ar      1 UNK         0.0000 
    668 C(5)        6.3649   44.1884   23.2355 C.ar      1 UNK         0.0000 
    669 C(6)        6.3596   45.5759   23.2268 C.ar      1 UNK         0.0000 
    670 C(7)        8.3327   48.6088   23.7318 C.2       1 UNK         0.0000 
    671 C(8)        7.8918   50.0429   23.6108 C.3       1 UNK         0.0000 
    672 H(1)        9.3641   46.1494   24.6992 H         1 UNK         0.0000 
    673 H(2)        9.3814   43.6986   24.7151 H         1 UNK         0.0000 
    674 H(3)        5.5218   43.6391   22.8352 H         1 UNK         0.0000 
    675 H(4)        5.5090   46.1094   22.8209 H         1 UNK         0.0000 
    676 H(5)        6.6518   41.7565   23.6089 H         1 UNK         0.0000 
    677 H(6)        6.4160   48.0670   23.5158 H         1 UNK         0.0000 
    678 H(7)        7.9701   50.5060   24.5600 H         1 UNK         0.0000 
    679 H(8)        6.8951   50.1411   23.2668 H         1 UNK         0.0000 
    680 H(9)        8.5723   50.5606   22.9860 H         1 UNK         0.0000 
    681 O(1)       11.8592   37.1439    8.3393 O.3       1 UNK         0.0000 
    682 O(2)       13.8570   38.3840    2.2953 O.2       1 UNK         0.0000 
    683 N(1)       11.6758   38.4346    2.9262 N.am      1 UNK         0.0000 
    684 C(1)       11.7753   38.0757    4.2891 C.ar      1 UNK         0.0000 
    685 C(2)       12.8574   37.3898    4.8403 C.ar      1 UNK         0.0000 
    686 C(3)       12.8645   37.0811    6.1975 C.ar      1 UNK         0.0000 
    687 C(4)       11.7944   37.4437    7.0114 C.ar      1 UNK         0.0000 
    688 C(5)       10.6988   38.1021    6.4543 C.ar      1 UNK         0.0000 
    689 C(6)       10.6935   38.4150    5.1025 C.ar      1 UNK         0.0000 
    690 C(7)       12.6666   38.5875    2.0327 C.2       1 UNK         0.0000 
    691 C(8)       12.2257   39.0201    0.6600 C.3       1 UNK         0.0000 
    692 H(1)       13.6980   37.1042    4.2200 H         1 UNK         0.0000 
    693 H(2)       13.7153   36.5512    6.6077 H         1 UNK         0.0000 
    694 H(3)        9.8557   38.3722    7.0780 H         1 UNK         0.0000 
    695 H(4)        9.8429   38.9281    4.6710 H         1 UNK         0.0000 
    696 H(5)       10.9857   37.2044    8.7451 H         1 UNK         0.0000 
    697 H(6)       10.7499   38.6794    2.6087 H         1 UNK         0.0000 
    698 H(7)       12.3040   38.1956    0.0000 H         1 UNK         0.0000 
    699 H(8)       11.2290   39.3772    0.6397 H         1 UNK         0.0000 
    700 H(9)       12.9062   39.7432    0.2920 H         1 UNK         0.0000 
    701 O(1)       14.5827   48.4654    5.1545 O.3       1 UNK         0.0000 
    702 O(2)       12.5848   42.2966    5.0387 O.2       1 UNK         0.0000 
    703 N(1)       14.7660   42.9010    5.2264 N.am      1 UNK         0.0000 
    704 C(1)       14.6665   44.3095    5.1752 C.ar      1 UNK         0.0000 
    705 C(2)       13.5844   44.9977    4.6269 C.ar      1 UNK         0.0000 
    706 C(3)       13.5773   46.3895    4.6234 C.ar      1 UNK         0.0000 
    707 C(4)       14.6474   47.1041    5.1557 C.ar      1 UNK         0.0000 
    708 C(5)       15.7430   46.4162    5.6759 C.ar      1 UNK         0.0000 
    709 C(6)       15.7483   45.0286    5.6846 C.ar      1 UNK         0.0000 
    710 C(7)       13.7752   41.9957    5.1796 C.2       1 UNK         0.0000 
    711 C(8)       14.2161   40.5616    5.3006 C.3       1 UNK         0.0000 
    712 H(1)       12.7438   44.4552    4.2122 H         1 UNK         0.0000 
    713 H(2)       12.7265   46.9060    4.1963 H         1 UNK         0.0000 
    714 H(3)       16.5861   46.9654    6.0762 H         1 UNK         0.0000 
    715 H(4)       16.5989   44.4951    6.0906 H         1 UNK         0.0000 
    716 H(5)       15.4561   48.8480    5.3025 H         1 UNK         0.0000 
    717 H(6)       15.6920   42.5376    5.3956 H         1 UNK         0.0000 
    718 H(7)       14.1378   40.0985    4.3514 H         1 UNK         0.0000 
    719 H(8)       15.2128   40.4635    5.6446 H         1 UNK         0.0000 
    720 H(9)       13.5356   40.0439    5.9254 H         1 UNK         0.0000 
    721 O(1)       11.8395   56.6810    6.2473 O.3       1 UNK         0.0000 
    722 O(2)        9.8417   55.4409   12.2913 O.2       1 UNK         0.0000 
    723 N(1)       12.0229   55.3903   11.6604 N.am      1 UNK         0.0000 
    724 C(1)       11.9234   55.7492   10.2975 C.ar      1 UNK         0.0000 
    725 C(2)       10.8413   56.4351    9.7463 C.ar      1 UNK         0.0000 
    726 C(3)       10.8342   56.7439    8.3892 C.ar      1 UNK         0.0000 
    727 C(4)       11.9043   56.3812    7.5752 C.ar      1 UNK         0.0000 
    728 C(5)       12.9999   55.7228    8.1323 C.ar      1 UNK         0.0000 
    729 C(6)       13.0052   55.4100    9.4841 C.ar      1 UNK         0.0000 
    730 C(7)       11.0321   55.2375   12.5539 C.2       1 UNK         0.0000 
    731 C(8)       11.4730   54.8048   13.9266 C.3       1 UNK         0.0000 
    732 H(1)       10.0007   56.7208   10.3666 H         1 UNK         0.0000 
    733 H(2)        9.9834   57.2738    7.9789 H         1 UNK         0.0000 
    734 H(3)       13.8430   55.4527    7.5086 H         1 UNK         0.0000 
    735 H(4)       13.8558   54.8969    9.9156 H         1 UNK         0.0000 
    736 H(5)       12.7130   56.6205    5.8415 H         1 UNK         0.0000 
    737 H(6)       12.9488   55.1456   11.9779 H         1 UNK         0.0000 
    738 H(7)       11.3947   55.6293   14.5866 H         1 UNK         0.0000 
    739 H(8)       12.4697   54.4477   13.9469 H         1 UNK         0.0000 
    740 H(9)       10.7925   54.0817   14.2946 H         1 UNK         0.0000 
    741 O(1)       16.1930   45.3595    9.4321 O.3       1 UNK         0.0000 
    742 O(2)       18.1909   51.5283    9.5479 O.2       1 UNK         0.0000 
    743 N(1)       16.0097   50.9239    9.3602 N.am      1 UNK         0.0000 
    744 C(1)       16.1092   49.5155    9.4114 C.ar      1 UNK         0.0000 
    745 C(2)       17.1913   48.8272    9.9597 C.ar      1 UNK         0.0000 
    746 C(3)       17.1984   47.4354    9.9633 C.ar      1 UNK         0.0000 
    747 C(4)       16.1283   46.7208    9.4309 C.ar      1 UNK         0.0000 
    748 C(5)       15.0327   47.4088    8.9107 C.ar      1 UNK         0.0000 
    749 C(6)       15.0274   48.7963    8.9020 C.ar      1 UNK         0.0000 
    750 C(7)       17.0005   51.8292    9.4070 C.2       1 UNK         0.0000 
    751 C(8)       16.5596   53.2633    9.2860 C.3       1 UNK         0.0000 
    752 H(1)       18.0319   49.3698   10.3744 H         1 UNK         0.0000 
    753 H(2)       18.0492   46.9190   10.3903 H         1 UNK         0.0000 
    754 H(3)       14.1896   46.8595    8.5104 H         1 UNK         0.0000 
    755 H(4)       14.1768   49.3298    8.4961 H         1 UNK         0.0000 
    756 H(5)       15.3196   44.9769    9.2841 H         1 UNK         0.0000 
    757 H(6)       15.0837   51.2874    9.1910 H         1 UNK         0.0000 
    758 H(7)       16.6379   53.7264   10.2352 H         1 UNK         0.0000 
    759 H(8)       15.5629   53.3615    8.9420 H         1 UNK         0.0000 
    760 H(9)       17.2401   53.7810    8.6612 H         1 UNK         0.0000 
    761 O(1)        6.3729   57.5572   15.5017 O.3       1 UNK         0.0000 
    762 O(2)        8.3707   58.7973    9.4577 O.2       1 UNK         0.0000 
    763 N(1)        6.1896   58.8479   10.0886 N.am      1 UNK         0.0000 
    764 C(1)        6.2891   58.4890   11.4515 C.ar      1 UNK         0.0000 
    765 C(2)        7.3712   57.8031   12.0027 C.ar      1 UNK         0.0000 
    766 C(3)        7.3782   57.4944   13.3599 C.ar      1 UNK         0.0000 
    767 C(4)        6.3082   57.8570   14.1738 C.ar      1 UNK         0.0000 
    768 C(5)        5.2126   58.5154   13.6167 C.ar      1 UNK         0.0000 
    769 C(6)        5.2073   58.8283   12.2649 C.ar      1 UNK         0.0000 
    770 C(7)        7.1804   59.0008    9.1951 C.2       1 UNK         0.0000 
    771 C(8)        6.7395   59.4334    7.8224 C.3       1 UNK         0.0000 
    772 H(1)        8.2118   57.5175   11.3824 H         1 UNK         0.0000 
    773 H(2)        8.2291   56.9645   13.7701 H         1 UNK         0.0000 
    774 H(3)        4.3694   58.7855   14.2404 H         1 UNK         0.0000 
    775 H(4)        4.3567   59.3414   11.8334 H         1 UNK         0.0000 
    776 H(5)        5.4995   57.6177   15.9075 H         1 UNK         0.0000 
    777 H(6)        5.2636   59.0927    9.7711 H         1 UNK         0.0000 
    778 H(7)        6.8178   58.6089    7.1624 H         1 UNK         0.0000 
    779 H(8)        5.7427   59.7905    7.8021 H         1 UNK         0.0000 
    780 H(9)        7.4200   60.1565    7.4544 H         1 UNK         0.0000 
    781 O(1)        7.5057   54.1964   12.3169 O.3       1 UNK         0.0000 
    782 O(2)        5.5078   48.0276   12.2011 O.2       1 UNK         0.0000 
    783 N(1)        7.6890   48.6320   12.3888 N.am      1 UNK         0.0000 
    784 C(1)        7.5895   50.0404   12.3376 C.ar      1 UNK         0.0000 
    785 C(2)        6.5074   50.7287   11.7893 C.ar      1 UNK         0.0000 
    786 C(3)        6.5003   52.1205   11.7858 C.ar      1 UNK         0.0000 
    787 C(4)        7.5704   52.8351   12.3181 C.ar      1 UNK         0.0000 
    788 C(5)        8.6660   52.1472   12.8383 C.ar      1 UNK         0.0000 
    789 C(6)        8.6713   50.7596   12.8470 C.ar      1 UNK         0.0000 
    790 C(7)        6.6982   47.7267   12.3420 C.2       1 UNK         0.0000 
    791 C(8)        7.1391   46.2926   12.4630 C.3       1 UNK         0.0000 
    792 H(1)        5.6668   50.1861   11.3746 H         1 UNK         0.0000 
    793 H(2)        5.6495   52.6369   11.3587 H         1 UNK         0.0000 
    794 H(3)        9.5091   52.6964   13.2386 H         1 UNK         0.0000 
    795 H(4)        9.5219   50.2261   13.2530 H         1 UNK         0.0000 
    796 H(5)        8.3791   54.5790   12.4649 H         1 UNK         0.0000 
    797 H(6)        8.6150   48.2685   12.5580 H         1 UNK         0.0000 
    798 H(7)        7.0608   45.8295   11.5138 H         1 UNK         0.0000 
    799 H(8)        8.1358   46.1944   12.8070 H         1 UNK         0.0000 
    800 H(9)        6.4586   45.7749   13.0878 H         1 UNK         0.0000 
    801 O(1)       11.8395   62.4120   13.4097 O.3       1 UNK         0.0000 
    802 O(2)        9.8417   61.1719   19.4537 O.2       1 UNK         0.0000 
    803 N(1)       12.0229   61.1213   18.8228 N.am      1 UNK         0.0000 
    804 C(1)       11.9234   61.4802   17.4599 C.ar      1 UNK         0.0000 
    805 C(2)       10.8413   62.1661   16.9087 C.ar      1 UNK         0.0000 
    806 C(3)       10.8342   62.4748   15.5516 C.ar      1 UNK         0.0000 
    807 C(4)       11.9043   62.1122   14.7376 C.ar      1 UNK         0.0000 
    808 C(5)       12.9999   61.4538   15.2947 C.ar      1 UNK         0.0000 
    809 C(6)       13.0052   61.1409   16.6465 C.ar      1 UNK         0.0000 
    810 C(7)       11.0321   60.9684   19.7163 C.2       1 UNK         0.0000 
    811 C(8)       11.4730   60.5358   21.0890 C.3       1 UNK         0.0000 
    812 H(1)       10.0007   62.4517   17.5290 H         1 UNK         0.0000 
    813 H(2)        9.9834   63.0047   15.1413 H         1 UNK         0.0000 
    814 H(3)       13.8430   61.1837   14.6710 H         1 UNK         0.0000 
    815 H(4)       13.8558   60.6279   17.0780 H         1 UNK         0.0000 
    816 H(5)       12.7130   62.3515   13.0039 H         1 UNK         0.0000 
    817 H(6)       12.9488   60.8765   19.1403 H         1 UNK         0.0000 
    818 H(7)       11.3947   61.3603   21.7490 H         1 UNK         0.0000 
    819 H(8)       12.4697   60.1787   21.1093 H         1 UNK         0.0000 
    820 H(9)       10.7925   59.8127   21.4570 H         1 UNK         0.0000 
    821 O(1)       16.1930   51.0905   16.5945 O.3       1 UNK         0.0000 
    822 O(2)       18.1909   57.2593   16.7103 O.2       1 UNK         0.0000 
    823 N(1)       16.0097   56.6549   16.5226 N.am      1 UNK         0.0000 
    824 C(1)       16.1092   55.2464   16.5738 C.ar      1 UNK         0.0000 
    825 C(2)       17.1913   54.5582   17.1221 C.ar      1 UNK         0.0000 
    826 C(3)       17.1984   53.1664   17.1257 C.ar      1 UNK         0.0000 
    827 C(4)       16.1283   52.4518   16.5933 C.ar      1 UNK         0.0000 
    828 C(5)       15.0327   53.1397   16.0731 C.ar      1 UNK         0.0000 
    829 C(6)       15.0274   54.5273   16.0644 C.ar      1 UNK         0.0000 
    830 C(7)       17.0005   57.5602   16.5694 C.2       1 UNK         0.0000 
    831 C(8)       16.5596   58.9943   16.4484 C.3       1 UNK         0.0000 
    832 H(1)       18.0319   55.1008   17.5368 H         1 UNK         0.0000 
    833 H(2)       18.0492   52.6499   17.5527 H         1 UNK         0.0000 
    834 H(3)       14.1896   52.5905   15.6728 H         1 UNK         0.0000 
    835 H(4)       14.1768   55.0608   15.6585 H         1 UNK         0.0000 
    836 H(5)       15.3196   50.7079   16.4465 H         1 UNK         0.0000 
    837 H(6)       15.0837   57.0183   16.3534 H         1 UNK         0.0000 
    838 H(7)       16.6379   59.4574   17.3976 H         1 UNK         0.0000 
    839 H(8)       15.5629   59.0924   16.1044 H         1 UNK         0.0000 
    840 H(9)       17.2401   59.5120   15.8236 H         1 UNK         0.0000 
    841 O(1)       11.8592   48.6059   22.6641 O.3       1 UNK         0.0000 
    842 O(2)       13.8570   49.8459   16.6201 O.2       1 UNK         0.0000 
    843 N(1)       11.6758   49.8966   17.2510 N.am      1 UNK         0.0000 
    844 C(1)       11.7753   49.5377   18.6139 C.ar      1 UNK         0.0000 
    845 C(2)       12.8574   48.8518   19.1651 C.ar      1 UNK         0.0000 
    846 C(3)       12.8645   48.5430   20.5223 C.ar      1 UNK         0.0000 
    847 C(4)       11.7944   48.9057   21.3362 C.ar      1 UNK         0.0000 
    848 C(5)       10.6988   49.5641   20.7791 C.ar      1 UNK         0.0000 
    849 C(6)       10.6935   49.8769   19.4273 C.ar      1 UNK         0.0000 
    850 C(7)       12.6666   50.0494   16.3575 C.2       1 UNK         0.0000 
    851 C(8)       12.2257   50.4820   14.9848 C.3       1 UNK         0.0000 
    852 H(1)       13.6980   48.5661   18.5448 H         1 UNK         0.0000 
    853 H(2)       13.7153   48.0131   20.9325 H         1 UNK         0.0000 
    854 H(3)        9.8557   49.8341   21.4028 H         1 UNK         0.0000 
    855 H(4)        9.8429   50.3900   18.9958 H         1 UNK         0.0000 
    856 H(5)       10.9857   48.6664   23.0699 H         1 UNK         0.0000 
    857 H(6)       10.7499   50.1413   16.9335 H         1 UNK         0.0000 
    858 H(7)       12.3040   49.6576   14.3248 H         1 UNK         0.0000 
    859 H(8)       11.2290   50.8392   14.9645 H         1 UNK         0.0000 
    860 H(9)       12.9062   51.2051   14.6168 H         1 UNK         0.0000 
    861 O(1)       14.5827   59.9274   19.4793 O.3       1 UNK         0.0000 
    862 O(2)       12.5848   53.7586   19.3635 O.2       1 UNK         0.0000 
    863 N(1)       14.7660   54.3630   19.5512 N.am      1 UNK         0.0000 
    864 C(1)       14.6665   55.7714   19.5000 C.ar      1 UNK         0.0000 
    865 C(2)       13.5844   56.4596   18.9517 C.ar      1 UNK         0.0000 
    866 C(3)       13.5773   57.8514   18.9482 C.ar      1 UNK         0.0000 
    867 C(4)       14.6474   58.5660   19.4805 C.ar      1 UNK         0.0000 
    868 C(5)       15.7430   57.8781   20.0007 C.ar      1 UNK         0.0000 
    869 C(6)       15.7483   56.4906   20.0094 C.ar      1 UNK         0.0000 
    870 C(7)       13.7752   53.4577   19.5044 C.2       1 UNK         0.0000 
    871 C(8)       14.2161   52.0235   19.6254 C.3       1 UNK         0.0000 
    872 H(1)       12.7438   55.9171   18.5370 H         1 UNK         0.0000 
    873 H(2)       12.7265   58.3679   18.5211 H         1 UNK         0.0000 
    874 H(3)       16.5861   58.4274   20.4010 H         1 UNK         0.0000 
    875 H(4)       16.5989   55.9571   20.4154 H         1 UNK         0.0000 
    876 H(5)       15.4561   60.3100   19.6273 H         1 UNK         0.0000 
    877 H(6)       15.6920   53.9995   19.7204 H         1 UNK         0.0000 
    878 H(7)       14.1378   51.5604   18.6762 H         1 UNK         0.0000 
    879 H(8)       15.2128   51.9254   19.9694 H         1 UNK         0.0000 
    880 H(9)       13.5356   51.5059   20.2502 H         1 UNK         0.0000 
    881 O(1)       10.2488   53.4606   20.5721 O.3       1 UNK         0.0000 
    882 O(2)        8.2510   52.2205   26.6161 O.2       1 UNK         0.0000 
    883 N(1)       10.4321   52.1699   25.9852 N.am      1 UNK         0.0000 
    884 C(1)       10.3326   52.5288   24.6223 C.ar      1 UNK         0.0000 
    885 C(2)        9.2505   53.2147   24.0711 C.ar      1 UNK         0.0000 
    886 C(3)        9.2435   53.5235   22.7140 C.ar      1 UNK         0.0000 
    887 C(4)       10.3135   53.1608   21.9000 C.ar      1 UNK         0.0000 
    888 C(5)       11.4091   52.5024   22.4571 C.ar      1 UNK         0.0000 
    889 C(6)       11.4144   52.1896   23.8089 C.ar      1 UNK         0.0000 
    890 C(7)        9.4413   52.0171   26.8787 C.2       1 UNK         0.0000 
    891 C(8)        9.8822   51.5844   28.2514 C.3       1 UNK         0.0000 
    892 H(1)        8.4100   53.5004   24.6914 H         1 UNK         0.0000 
    893 H(2)        8.3926   54.0534   22.3037 H         1 UNK         0.0000 
    894 H(3)       12.2523   52.2323   21.8334 H         1 UNK         0.0000 
    895 H(4)       12.2650   51.6765   24.2404 H         1 UNK         0.0000 
    896 H(5)       11.1222   53.4001   20.1663 H         1 UNK         0.0000 
    897 H(6)       11.3581   51.9252   26.3027 H         1 UNK         0.0000 
    898 H(7)        9.8039   52.4089   28.9114 H         1 UNK         0.0000 
    899 H(8)       10.8790   51.2273   28.2717 H         1 UNK         0.0000 
    900 H(9)        9.2017   50.8613   28.6194 H         1 UNK         0.0000 
    901 O(1)        9.1160   56.8215   23.7569 O.3       1 UNK         0.0000 
    902 O(2)       11.1139   62.9902   23.8727 O.2       1 UNK         0.0000 
    903 N(1)        8.9327   62.3858   23.6850 N.am      1 UNK         0.0000 
    904 C(1)        9.0322   60.9774   23.7362 C.ar      1 UNK         0.0000 
    905 C(2)       10.1143   60.2892   24.2845 C.ar      1 UNK         0.0000 
    906 C(3)       10.1214   58.8974   24.2881 C.ar      1 UNK         0.0000 
    907 C(4)        9.0513   58.1828   23.7557 C.ar      1 UNK         0.0000 
    908 C(5)        7.9557   58.8707   23.2355 C.ar      1 UNK         0.0000 
    909 C(6)        7.9504   60.2582   23.2268 C.ar      1 UNK         0.0000 
    910 C(7)        9.9235   63.2911   23.7318 C.2       1 UNK         0.0000 
    911 C(8)        9.4826   64.7253   23.6108 C.3       1 UNK         0.0000 
    912 H(1)       10.9549   60.8317   24.6992 H         1 UNK         0.0000 
    913 H(2)       10.9722   58.3809   24.7151 H         1 UNK         0.0000 
    914 H(3)        7.1126   58.3214   22.8352 H         1 UNK         0.0000 
    915 H(4)        7.0998   60.7917   22.8209 H         1 UNK         0.0000 
    916 H(5)        8.2426   56.4389   23.6089 H         1 UNK         0.0000 
    917 H(6)        8.0067   62.7493   23.5158 H         1 UNK         0.0000 
    918 H(7)        9.5609   65.1884   24.5600 H         1 UNK         0.0000 
    919 H(8)        8.4859   64.8234   23.2668 H         1 UNK         0.0000 
    920 H(9)       10.1631   65.2429   22.9860 H         1 UNK         0.0000 
    921 O(1)       13.4499   51.8263    8.3393 O.3       1 UNK         0.0000 
    922 O(2)       15.4477   53.0663    2.2953 O.2       1 UNK         0.0000 
    923 N(1)       13.2666   53.1170    2.9262 N.am      1 UNK         0.0000 
    924 C(1)       13.3661   52.7581    4.2891 C.ar      1 UNK         0.0000 
    925 C(2)       14.4482   52.0722    4.8403 C.ar      1 UNK         0.0000 
    926 C(3)       14.4552   51.7634    6.1975 C.ar      1 UNK         0.0000 
    927 C(4)       13.3852   52.1261    7.0114 C.ar      1 UNK         0.0000 
    928 C(5)       12.2896   52.7845    6.4543 C.ar      1 UNK         0.0000 
    929 C(6)       12.2843   53.0973    5.1025 C.ar      1 UNK         0.0000 
    930 C(7)       14.2574   53.2698    2.0327 C.2       1 UNK         0.0000 
    931 C(8)       13.8165   53.7024    0.6600 C.3       1 UNK         0.0000 
    932 H(1)       15.2888   51.7865    4.2200 H         1 UNK         0.0000 
    933 H(2)       15.3061   51.2335    6.6077 H         1 UNK         0.0000 
    934 H(3)       11.4464   53.0545    7.0780 H         1 UNK         0.0000 
    935 H(4)       11.4337   53.6104    4.6710 H         1 UNK         0.0000 
    936 H(5)       12.5765   51.8868    8.7451 H         1 UNK         0.0000 
    937 H(6)       12.3406   53.3617    2.6087 H         1 UNK         0.0000 
    938 H(7)       13.8948   52.8780    0.0000 H         1 UNK         0.0000 
    939 H(8)       12.8197   54.0596    0.6397 H         1 UNK         0.0000 
    940 H(9)       14.4970   54.4255    0.2920 H         1 UNK         0.0000 
    941 O(1)       16.1734   63.1478    5.1545 O.3       1 UNK         0.0000 
    942 O(2)       14.1756   56.9790    5.0387 O.2       1 UNK         0.0000 
    943 N(1)       16.3568   57.5834    5.2264 N.am      1 UNK         0.0000 
    944 C(1)       16.2573   58.9918    5.1752 C.ar      1 UNK         0.0000 
    945 C(2)       15.1752   59.6800    4.6269 C.ar      1 UNK         0.0000 
    946 C(3)       15.1681   61.0718    4.6234 C.ar      1 UNK         0.0000 
    947 C(4)       16.2382   61.7864    5.1557 C.ar      1 UNK         0.0000 
    948 C(5)       17.3338   61.0985    5.6759 C.ar      1 UNK         0.0000 
    949 C(6)       17.3391   59.7110    5.6846 C.ar      1 UNK         0.0000 
    950 C(7)       15.3660   56.6781    5.1796 C.2       1 UNK         0.0000 
    951 C(8)       15.8069   55.2439    5.3006 C.3       1 UNK         0.0000 
    952 H(1)       14.3346   59.1375    4.2122 H         1 UNK         0.0000 
    953 H(2)       14.3173   61.5883    4.1963 H         1 UNK         0.0000 
    954 H(3)       18.1769   61.6478    6.0762 H         1 UNK         0.0000 
    955 H(4)       18.1897   59.1775    6.0906 H         1 UNK         0.0000 
    956 H(5)       17.0469   63.5304    5.3025 H         1 UNK         0.0000 
    957 H(6)       17.2827   57.2199    5.3956 H         1 UNK         0.0000 
    958 H(7)       15.7286   54.7808    4.3514 H         1 UNK         0.0000 
    959 H(8)       16.8036   55.1458    5.6446 H         1 UNK         0.0000 
    960 H(9)       15.1264   54.7263    5.9254 H         1 UNK         0.0000 
    961 O(1)       13.4303   71.3634    6.2473 O.3       1 UNK         0.0000 
    962 O(2)       11.4325   70.1233   12.2913 O.2       1 UNK         0.0000 
    963 N(1)       13.6137   70.0726   11.6604 N.am      1 UNK         0.0000 
    964 C(1)       13.5142   70.4316   10.2975 C.ar      1 UNK         0.0000 
    965 C(2)       12.4321   71.1174    9.7463 C.ar      1 UNK         0.0000 
    966 C(3)       12.4250   71.4262    8.3892 C.ar      1 UNK         0.0000 
    967 C(4)       13.4950   71.0635    7.5752 C.ar      1 UNK         0.0000 
    968 C(5)       14.5907   70.4052    8.1323 C.ar      1 UNK         0.0000 
    969 C(6)       14.5960   70.0923    9.4841 C.ar      1 UNK         0.0000 
    970 C(7)       12.6229   69.9198   12.5539 C.2       1 UNK         0.0000 
    971 C(8)       13.0637   69.4872   13.9266 C.3       1 UNK         0.0000 
    972 H(1)       11.5915   71.4031   10.3666 H         1 UNK         0.0000 
    973 H(2)       11.5742   71.9561    7.9789 H         1 UNK         0.0000 
    974 H(3)       15.4338   70.1351    7.5086 H         1 UNK         0.0000 
    975 H(4)       15.4466   69.5792    9.9156 H         1 UNK         0.0000 
    976 H(5)       14.3038   71.3028    5.8415 H         1 UNK         0.0000 
    977 H(6)       14.5396   69.8279   11.9779 H         1 UNK         0.0000 
    978 H(7)       12.9855   70.3116   14.5866 H         1 UNK         0.0000 
    979 H(8)       14.0605   69.1300   13.9469 H         1 UNK         0.0000 
    980 H(9)       12.3833   68.7641   14.2946 H         1 UNK         0.0000 
    981 O(1)       17.7838   60.0419    9.4321 O.3       1 UNK         0.0000 
    982 O(2)       19.7816   66.2106    9.5479 O.2       1 UNK         0.0000 
    983 N(1)       17.6005   65.6062    9.3602 N.am      1 UNK         0.0000 
    984 C(1)       17.7000   64.1978    9.4114 C.ar      1 UNK         0.0000 
    985 C(2)       18.7821   63.5096    9.9597 C.ar      1 UNK         0.0000 
    986 C(3)       18.7891   62.1178    9.9633 C.ar      1 UNK         0.0000 
    987 C(4)       17.7191   61.4032    9.4309 C.ar      1 UNK         0.0000 
    988 C(5)       16.6235   62.0911    8.9107 C.ar      1 UNK         0.0000 
    989 C(6)       16.6182   63.4786    8.9020 C.ar      1 UNK         0.0000 
    990 C(7)       18.5913   66.5115    9.4070 C.2       1 UNK         0.0000 
    991 C(8)       18.1504   67.9457    9.2860 C.3       1 UNK         0.0000 
    992 H(1)       19.6226   64.0521   10.3744 H         1 UNK         0.0000 
    993 H(2)       19.6400   61.6013   10.3903 H         1 UNK         0.0000 
    994 H(3)       15.7803   61.5418    8.5104 H         1 UNK         0.0000 
    995 H(4)       15.7676   64.0121    8.4961 H         1 UNK         0.0000 
    996 H(5)       16.9104   59.6593    9.2841 H         1 UNK         0.0000 
    997 H(6)       16.6745   65.9697    9.1910 H         1 UNK         0.0000 
    998 H(7)       18.2287   68.4088   10.2352 H         1 UNK         0.0000 
    999 H(8)       17.1536   68.0438    8.9420 H         1 UNK         0.0000 
   1000 H(9)       18.8309   68.4633    8.6612 H         1 UNK         0.0000 
   1001 O(1)        7.9637   72.2396   15.5017 O.3       1 UNK         0.0000 
   1002 O(2)        9.9615   73.4796    9.4577 O.2       1 UNK         0.0000 
   1003 N(1)        7.7804   73.5303   10.0886 N.am      1 UNK         0.0000 
   1004 C(1)        7.8798   73.1714   11.4515 C.ar      1 UNK         0.0000 
   1005 C(2)        8.9620   72.4855   12.0027 C.ar      1 UNK         0.0000 
   1006 C(3)        8.9690   72.1767   13.3599 C.ar      1 UNK         0.0000 
   1007 C(4)        7.8990   72.5394   14.1738 C.ar      1 UNK         0.0000 
   1008 C(5)        6.8034   73.1977   13.6167 C.ar      1 UNK         0.0000 
   1009 C(6)        6.7981   73.5106   12.2649 C.ar      1 UNK         0.0000 
   1010 C(7)        8.7712   73.6831    9.1951 C.2       1 UNK         0.0000 
   1011 C(8)        8.3303   74.1157    7.8224 C.3       1 UNK         0.0000 
   1012 H(1)        9.8025   72.1998   11.3824 H         1 UNK         0.0000 
   1013 H(2)        9.8198   71.6468   13.7701 H         1 UNK         0.0000 
   1014 H(3)        5.9602   73.4678   14.2404 H         1 UNK         0.0000 
   1015 H(4)        5.9475   74.0237   11.8334 H         1 UNK         0.0000 
   1016 H(5)        7.0903   72.3001   15.9075 H         1 UNK         0.0000 
   1017 H(6)        6.8544   73.7750    9.7711 H         1 UNK         0.0000 
   1018 H(7)        8.4086   73.2913    7.1624 H         1 UNK         0.0000 
   1019 H(8)        7.3335   74.4729    7.8021 H         1 UNK         0.0000 
   1020 H(9)        9.0108   74.8388    7.4544 H         1 UNK         0.0000 
   1021 O(1)        9.0964   68.8787   12.3169 O.3       1 UNK         0.0000 
   1022 O(2)        7.0986   62.7099   12.2011 O.2       1 UNK         0.0000 
   1023 N(1)        9.2798   63.3143   12.3888 N.am      1 UNK         0.0000 
   1024 C(1)        9.1803   64.7228   12.3376 C.ar      1 UNK         0.0000 
   1025 C(2)        8.0982   65.4110   11.7893 C.ar      1 UNK         0.0000 
   1026 C(3)        8.0911   66.8028   11.7858 C.ar      1 UNK         0.0000 
   1027 C(4)        9.1612   67.5174   12.3181 C.ar      1 UNK         0.0000 
   1028 C(5)       10.2568   66.8295   12.8383 C.ar      1 UNK         0.0000 
   1029 C(6)       10.2621   65.4419   12.8470 C.ar      1 UNK         0.0000 
   1030 C(7)        8.2890   62.4090   12.3420 C.2       1 UNK         0.0000 
   1031 C(8)        8.7299   60.9749   12.4630 C.3       1 UNK         0.0000 
   1032 H(1)        7.2576   64.8685   11.3746 H         1 UNK         0.0000 
   1033 H(2)        7.2403   67.3193   11.3587 H         1 UNK         0.0000 
   1034 H(3)       11.0999   67.3787   13.2386 H         1 UNK         0.0000 
   1035 H(4)       11.1127   64.9084   13.2530 H         1 UNK         0.0000 
   1036 H(5)        9.9699   69.2613   12.4649 H         1 UNK         0.0000 
   1037 H(6)       10.2057   62.9509   12.5580 H         1 UNK         0.0000 
   1038 H(7)        8.6516   60.5118   11.5138 H         1 UNK         0.0000 
   1039 H(8)        9.7266   60.8768   12.8070 H         1 UNK         0.0000 
   1040 H(9)        8.0494   60.4572   13.0878 H         1 UNK         0.0000 
   1041 O(1)       13.4303   77.0943   13.4097 O.3       1 UNK         0.0000 
   1042 O(2)       11.4325   75.8542   19.4537 O.2       1 UNK         0.0000 
   1043 N(1)       13.6137   75.8036   18.8228 N.am      1 UNK         0.0000 
   1044 C(1)       13.5142   76.1625   17.4599 C.ar      1 UNK         0.0000 
   1045 C(2)       12.4321   76.8484   16.9087 C.ar      1 UNK         0.0000 
   1046 C(3)       12.4250   77.1572   15.5516 C.ar      1 UNK         0.0000 
   1047 C(4)       13.4950   76.7945   14.7376 C.ar      1 UNK         0.0000 
   1048 C(5)       14.5907   76.1361   15.2947 C.ar      1 UNK         0.0000 
   1049 C(6)       14.5960   75.8232   16.6465 C.ar      1 UNK         0.0000 
   1050 C(7)       12.6229   75.6508   19.7163 C.2       1 UNK         0.0000 
   1051 C(8)       13.0637   75.2181   21.0890 C.3       1 UNK         0.0000 
   1052 H(1)       11.5915   77.1341   17.5290 H         1 UNK         0.0000 
   1053 H(2)       11.5742   77.6871   15.1413 H         1 UNK         0.0000 
   1054 H(3)       15.4338   75.8660   14.6710 H         1 UNK         0.0000 
   1055 H(4)       15.4466   75.3102   17.0780 H         1 UNK         0.0000 
   1056 H(5)       14.3038   77.0338   13.0039 H         1 UNK         0.0000 
   1057 H(6)       14.5396   75.5589   19.1403 H         1 UNK         0.0000 
   1058 H(7)       12.9855   76.0426   21.7490 H         1 UNK         0.0000 
   1059 H(8)       14.0605   74.8610   21.1093 H         1 UNK         0.0000 
   1060 H(9)       12.3833   74.4950   21.4570 H         1 UNK         0.0000 
   1061 O(1)       17.7838   65.7728   16.5945 O.3       1 UNK         0.0000 
   1062 O(2)       19.7816   71.9416   16.7103 O.2       1 UNK         0.0000 
   1063 N(1)       17.6005   71.3372   16.5226 N.am      1 UNK         0.0000 
   1064 C(1)       17.7000   69.9288   16.5738 C.ar      1 UNK         0.0000 
   1065 C(2)       18.7821   69.2405   17.1221 C.ar      1 UNK         0.0000 
   1066 C(3)       18.7891   67.8487   17.1257 C.ar      1 UNK         0.0000 
   1067 C(4)       17.7191   67.1341   16.5933 C.ar      1 UNK         0.0000 
   1068 C(5)       16.6235   67.8221   16.0731 C.ar      1 UNK         0.0000 
   1069 C(6)       16.6182   69.2096   16.0644 C.ar      1 UNK         0.0000 
   1070 C(7)       18.5913   72.2425   16.5694 C.2       1 UNK         0.0000 
   1071 C(8)       18.1504   73.6766   16.4484 C.3       1 UNK         0.0000 
   1072 H(1)       19.6226   69.7831   17.5368 H         1 UNK         0.0000 
   1073 H(2)       19.6400   67.3323   17.5527 H         1 UNK         0.0000 
   1074 H(3)       15.7803   67.2728   15.6728 H         1 UNK         0.0000 
   1075 H(4)       15.7676   69.7431   15.6585 H         1 UNK         0.0000 
   1076 H(5)       16.9104   65.3902   16.4465 H         1 UNK         0.0000 
   1077 H(6)       16.6745   71.7007   16.3534 H         1 UNK         0.0000 
   1078 H(7)       18.2287   74.1397   17.3976 H         1 UNK         0.0000 
   1079 H(8)       17.1536   73.7748   16.1044 H         1 UNK         0.0000 
   1080 H(9)       18.8309   74.1943   15.8236 H         1 UNK         0.0000 
   1081 O(1)       13.4499   63.2882   22.6641 O.3       1 UNK         0.0000 
   1082 O(2)       15.4477   64.5283   16.6201 O.2       1 UNK         0.0000 
   1083 N(1)       13.2666   64.5789   17.2510 N.am      1 UNK         0.0000 
   1084 C(1)       13.3661   64.2200   18.6139 C.ar      1 UNK         0.0000 
   1085 C(2)       14.4482   63.5341   19.1651 C.ar      1 UNK         0.0000 
   1086 C(3)       14.4552   63.2253   20.5223 C.ar      1 UNK         0.0000 
   1087 C(4)       13.3852   63.5880   21.3362 C.ar      1 UNK         0.0000 
   1088 C(5)       12.2896   64.2464   20.7791 C.ar      1 UNK         0.0000 
   1089 C(6)       12.2843   64.5593   19.4273 C.ar      1 UNK         0.0000 
   1090 C(7)       14.2574   64.7317   16.3575 C.2       1 UNK         0.0000 
   1091 C(8)       13.8165   65.1644   14.9848 C.3       1 UNK         0.0000 
   1092 H(1)       15.2888   63.2484   18.5448 H         1 UNK         0.0000 
   1093 H(2)       15.3061   62.6954   20.9325 H         1 UNK         0.0000 
   1094 H(3)       11.4464   64.5165   21.4028 H         1 UNK         0.0000 
   1095 H(4)       11.4337   65.0723   18.9958 H         1 UNK         0.0000 
   1096 H(5)       12.5765   63.3487   23.0699 H         1 UNK         0.0000 
   1097 H(6)       12.3406   64.8236   16.9335 H         1 UNK         0.0000 
   1098 H(7)       13.8948   64.3399   14.3248 H         1 UNK         0.0000 
   1099 H(8)       12.8197   65.5215   14.9645 H         1 UNK         0.0000 
   1100 H(9)       14.4970   65.8875   14.6168 H         1 UNK         0.0000 
   1101 O(1)       16.1734   74.6097   19.4793 O.3       1 UNK         0.0000 
   1102 O(2)       14.1756   68.4409   19.3635 O.2       1 UNK         0.0000 
   1103 N(1)       16.3568   69.0453   19.5512 N.am      1 UNK         0.0000 
   1104 C(1)       16.2573   70.4537   19.5000 C.ar      1 UNK         0.0000 
   1105 C(2)       15.1752   71.1420   18.9517 C.ar      1 UNK         0.0000 
   1106 C(3)       15.1681   72.5338   18.9482 C.ar      1 UNK         0.0000 
   1107 C(4)       16.2382   73.2484   19.4805 C.ar      1 UNK         0.0000 
   1108 C(5)       17.3338   72.5605   20.0007 C.ar      1 UNK         0.0000 
   1109 C(6)       17.3391   71.1729   20.0094 C.ar      1 UNK         0.0000 
   1110 C(7)       15.3660   68.1400   19.5044 C.2       1 UNK         0.0000 
   1111 C(8)       15.8069   66.7059   19.6254 C.3       1 UNK         0.0000 
   1112 H(1)       14.3346   70.5994   18.5370 H         1 UNK         0.0000 
   1113 H(2)       14.3173   73.0502   18.5211 H         1 UNK         0.0000 
   1114 H(3)       18.1769   73.1097   20.4010 H         1 UNK         0.0000 
   1115 H(4)       18.1897   70.6394   20.4154 H         1 UNK         0.0000 
   1116 H(5)       17.0469   74.9923   19.6273 H         1 UNK         0.0000 
   1117 H(6)       17.2827   68.6818   19.7204 H         1 UNK         0.0000 
   1118 H(7)       15.7286   66.2428   18.6762 H         1 UNK         0.0000 
   1119 H(8)       16.8036   66.6077   19.9694 H         1 UNK         0.0000 
   1120 H(9)       15.1264   66.1882   20.2502 H         1 UNK         0.0000 
   1121 O(1)       11.8395   68.1430   20.5721 O.3       1 UNK         0.0000 
   1122 O(2)        9.8417   66.9029   26.6161 O.2       1 UNK         0.0000 
   1123 N(1)       12.0229   66.8522   25.9852 N.am      1 UNK         0.0000 
   1124 C(1)       11.9234   67.2112   24.6223 C.ar      1 UNK         0.0000 
   1125 C(2)       10.8413   67.8970   24.0711 C.ar      1 UNK         0.0000 
   1126 C(3)       10.8342   68.2058   22.7140 C.ar      1 UNK         0.0000 
   1127 C(4)       11.9043   67.8431   21.9000 C.ar      1 UNK         0.0000 
   1128 C(5)       12.9999   67.1848   22.4571 C.ar      1 UNK         0.0000 
   1129 C(6)       13.0052   66.8719   23.8089 C.ar      1 UNK         0.0000 
   1130 C(7)       11.0321   66.6994   26.8787 C.2       1 UNK         0.0000 
   1131 C(8)       11.4730   66.2668   28.2514 C.3       1 UNK         0.0000 
   1132 H(1)       10.0007   68.1827   24.6914 H         1 UNK         0.0000 
   1133 H(2)        9.9834   68.7357   22.3037 H         1 UNK         0.0000 
   1134 H(3)       13.8430   66.9147   21.8334 H         1 UNK         0.0000 
   1135 H(4)       13.8558   66.3588   24.2404 H         1 UNK         0.0000 
   1136 H(5)       12.7130   68.0824   20.1663 H         1 UNK         0.0000 
   1137 H(6)       12.9488   66.6075   26.3027 H         1 UNK         0.0000 
   1138 H(7)       11.3947   67.0912   28.9114 H         1 UNK         0.0000 
   1139 H(8)       12.4697   65.9096   28.2717 H         1 UNK         0.0000 
   1140 H(9)       10.7925   65.5437   28.6194 H         1 UNK         0.0000 
   1141 O(1)       10.7068   71.5038   23.7569 O.3       1 UNK         0.0000 
   1142 O(2)       12.7046   77.6726   23.8727 O.2       1 UNK         0.0000 
   1143 N(1)       10.5235   77.0682   23.6850 N.am      1 UNK         0.0000 
   1144 C(1)       10.6230   75.6597   23.7362 C.ar      1 UNK         0.0000 
   1145 C(2)       11.7051   74.9715   24.2845 C.ar      1 UNK         0.0000 
   1146 C(3)       11.7121   73.5797   24.2881 C.ar      1 UNK         0.0000 
   1147 C(4)       10.6421   72.8651   23.7557 C.ar      1 UNK         0.0000 
   1148 C(5)        9.5465   73.5530   23.2355 C.ar      1 UNK         0.0000 
   1149 C(6)        9.5412   74.9406   23.2268 C.ar      1 UNK         0.0000 
   1150 C(7)       11.5143   77.9735   23.7318 C.2       1 UNK         0.0000 
   1151 C(8)       11.0734   79.4076   23.6108 C.3       1 UNK         0.0000 
   1152 H(1)       12.5456   75.5140   24.6992 H         1 UNK         0.0000 
   1153 H(2)       12.5630   73.0632   24.7151 H         1 UNK         0.0000 
   1154 H(3)        8.7033   73.0038   22.8352 H         1 UNK         0.0000 
   1155 H(4)        8.6906   75.4741   22.8209 H         1 UNK         0.0000 
   1156 H(5)        9.8334   71.1212   23.6089 H         1 UNK         0.0000 
   1157 H(6)        9.5975   77.4316   23.5158 H         1 UNK         0.0000 
   1158 H(7)       11.1517   79.8707   24.5600 H         1 UNK         0.0000 
   1159 H(8)       10.0766   79.5057   23.2668 H         1 UNK         0.0000 
   1160 H(9)       11.7539   79.9253   22.9860 H         1 UNK         0.0000 
   1161 O(1)       15.0407   66.5086    8.3393 O.3       1 UNK         0.0000 
   1162 O(2)       17.0385   67.7487    2.2953 O.2       1 UNK         0.0000 
   1163 N(1)       14.8574   67.7993    2.9262 N.am      1 UNK         0.0000 
   1164 C(1)       14.9568   67.4404    4.2891 C.ar      1 UNK         0.0000 
   1165 C(2)       16.0390   66.7545    4.8403 C.ar      1 UNK         0.0000 
   1166 C(3)       16.0460   66.4457    6.1975 C.ar      1 UNK         0.0000 
   1167 C(4)       14.9760   66.8084    7.0114 C.ar      1 UNK         0.0000 
   1168 C(5)       13.8804   67.4668    6.4543 C.ar      1 UNK         0.0000 
   1169 C(6)       13.8751   67.7797    5.1025 C.ar      1 UNK         0.0000 
   1170 C(7)       15.8482   67.9521    2.0327 C.2       1 UNK         0.0000 
   1171 C(8)       15.4073   68.3848    0.6600 C.3       1 UNK         0.0000 
   1172 H(1)       16.8795   66.4688    4.2200 H         1 UNK         0.0000 
   1173 H(2)       16.8968   65.9158    6.6077 H         1 UNK         0.0000 
   1174 H(3)       13.0372   67.7369    7.0780 H         1 UNK         0.0000 
   1175 H(4)       13.0245   68.2927    4.6710 H         1 UNK         0.0000 
   1176 H(5)       14.1673   66.5691    8.7451 H         1 UNK         0.0000 
   1177 H(6)       13.9314   68.0440    2.6087 H         1 UNK         0.0000 
   1178 H(7)       15.4856   67.5603    0.0000 H         1 UNK         0.0000 
   1179 H(8)       14.4105   68.7419    0.6397 H         1 UNK         0.0000 
   1180 H(9)       16.0878   69.1079    0.2920 H         1 UNK         0.0000 
   1181 O(1)       17.7642   77.8301    5.1545 O.3       1 UNK         0.0000 
   1182 O(2)       15.7664   71.6613    5.0387 O.2       1 UNK         0.0000 
   1183 N(1)       17.9476   72.2657    5.2264 N.am      1 UNK         0.0000 
   1184 C(1)       17.8481   73.6741    5.1752 C.ar      1 UNK         0.0000 
   1185 C(2)       16.7659   74.3624    4.6269 C.ar      1 UNK         0.0000 
   1186 C(3)       16.7589   75.7542    4.6234 C.ar      1 UNK         0.0000 
   1187 C(4)       17.8289   76.4688    5.1557 C.ar      1 UNK         0.0000 
   1188 C(5)       18.9245   75.7809    5.6759 C.ar      1 UNK         0.0000 
   1189 C(6)       18.9299   74.3933    5.6846 C.ar      1 UNK         0.0000 
   1190 C(7)       16.9568   71.3604    5.1796 C.2       1 UNK         0.0000 
   1191 C(8)       17.3976   69.9263    5.3006 C.3       1 UNK         0.0000 
   1192 H(1)       15.9254   73.8198    4.2122 H         1 UNK         0.0000 
   1193 H(2)       15.9081   76.2706    4.1963 H         1 UNK         0.0000 
   1194 H(3)       19.7677   76.3301    6.0762 H         1 UNK         0.0000 
   1195 H(4)       19.7805   73.8598    6.0906 H         1 UNK         0.0000 
   1196 H(5)       18.6377   78.2127    5.3025 H         1 UNK         0.0000 
   1197 H(6)       18.8735   71.9022    5.3956 H         1 UNK         0.0000 
   1198 H(7)       17.3194   69.4632    4.3514 H         1 UNK         0.0000 
   1199 H(8)       18.3944   69.8281    5.6446 H         1 UNK         0.0000 
   1200 H(9)       16.7172   69.4086    5.9254 H         1 UNK         0.0000 
   1201 O(1)       14.1442   12.6340    6.2473 O.3       1 UNK         0.0000 
   1202 O(2)       12.1464   11.3940   12.2913 O.2       1 UNK         0.0000 
   1203 N(1)       14.3275   11.3433   11.6604 N.am      1 UNK         0.0000 
   1204 C(1)       14.2281   11.7022   10.2975 C.ar      1 UNK         0.0000 
   1205 C(2)       13.1459   12.3881    9.7463 C.ar      1 UNK         0.0000 
   1206 C(3)       13.1389   12.6969    8.3892 C.ar      1 UNK         0.0000 
   1207 C(4)       14.2089   12.3342    7.5752 C.ar      1 UNK         0.0000 
   1208 C(5)       15.3045   11.6758    8.1323 C.ar      1 UNK         0.0000 
   1209 C(6)       15.3098   11.3630    9.4841 C.ar      1 UNK         0.0000 
   1210 C(7)       13.3368   11.1905   12.5539 C.2       1 UNK         0.0000 
   1211 C(8)       13.7776   10.7579   13.9266 C.3       1 UNK         0.0000 
   1212 H(1)       12.3054   12.6738   10.3666 H         1 UNK         0.0000 
   1213 H(2)       12.2881   13.2268    7.9789 H         1 UNK         0.0000 
   1214 H(3)       16.1477   11.4057    7.5086 H         1 UNK         0.0000 
   1215 H(4)       16.1604   10.8499    9.9156 H         1 UNK         0.0000 
   1216 H(5)       15.0176   12.5735    5.8415 H         1 UNK         0.0000 
   1217 H(6)       15.2535   11.0986   11.9779 H         1 UNK         0.0000 
   1218 H(7)       13.6993   11.5823   14.5866 H         1 UNK         0.0000 
   1219 H(8)       14.7744   10.4007   13.9469 H         1 UNK         0.0000 
   1220 H(9)       13.0971   10.0347   14.2946 H         1 UNK         0.0000 
   1221 O(1)       18.4977    1.3125    9.4321 O.3       1 UNK         0.0000 
   1222 O(2)       20.4955    7.4813    9.5479 O.2       1 UNK         0.0000 
   1223 N(1)       18.3144    6.8769    9.3602 N.am      1 UNK         0.0000 
   1224 C(1)       18.4138    5.4685    9.4114 C.ar      1 UNK         0.0000 
   1225 C(2)       19.4960    4.7803    9.9597 C.ar      1 UNK         0.0000 
   1226 C(3)       19.5030    3.3885    9.9633 C.ar      1 UNK         0.0000 
   1227 C(4)       18.4330    2.6738    9.4309 C.ar      1 UNK         0.0000 
   1228 C(5)       17.3374    3.3618    8.9107 C.ar      1 UNK         0.0000 
   1229 C(6)       17.3321    4.7493    8.9020 C.ar      1 UNK         0.0000 
   1230 C(7)       19.3051    7.7822    9.4070 C.2       1 UNK         0.0000 
   1231 C(8)       18.8643    9.2163    9.2860 C.3       1 UNK         0.0000 
   1232 H(1)       20.3365    5.3228   10.3744 H         1 UNK         0.0000 
   1233 H(2)       20.3538    2.8720   10.3903 H         1 UNK         0.0000 
   1234 H(3)       16.4942    2.8125    8.5104 H         1 UNK         0.0000 
   1235 H(4)       16.4814    5.2828    8.4961 H         1 UNK         0.0000 
   1236 H(5)       17.6243    0.9299    9.2841 H         1 UNK         0.0000 
   1237 H(6)       17.3884    7.2404    9.1910 H         1 UNK         0.0000 
   1238 H(7)       18.9425    9.6795   10.2352 H         1 UNK         0.0000 
   1239 H(8)       17.8675    9.3145    8.9420 H         1 UNK         0.0000 
   1240 H(9)       19.5448    9.7340    8.6612 H         1 UNK         0.0000 
   1241 O(1)        8.6776   13.5102   15.5017 O.3       1 UNK         0.0000 
   1242 O(2)       10.6754   14.7503    9.4577 O.2       1 UNK         0.0000 
   1243 N(1)        8.4943   14.8009   10.0886 N.am      1 UNK         0.0000 
   1244 C(1)        8.5937   14.4420   11.4515 C.ar      1 UNK         0.0000 
   1245 C(2)        9.6759   13.7561   12.0027 C.ar      1 UNK         0.0000 
   1246 C(3)        9.6829   13.4474   13.3599 C.ar      1 UNK         0.0000 
   1247 C(4)        8.6129   13.8100   14.1738 C.ar      1 UNK         0.0000 
   1248 C(5)        7.5173   14.4684   13.6167 C.ar      1 UNK         0.0000 
   1249 C(6)        7.5120   14.7813   12.2649 C.ar      1 UNK         0.0000 
   1250 C(7)        9.4850   14.9538    9.1951 C.2       1 UNK         0.0000 
   1251 C(8)        9.0442   15.3864    7.8224 C.3       1 UNK         0.0000 
   1252 H(1)       10.5164   13.4705   11.3824 H         1 UNK         0.0000 
   1253 H(2)       10.5337   12.9175   13.7701 H         1 UNK         0.0000 
   1254 H(3)        6.6741   14.7385   14.2404 H         1 UNK         0.0000 
   1255 H(4)        6.6613   15.2944   11.8334 H         1 UNK         0.0000 
   1256 H(5)        7.8041   13.5707   15.9075 H         1 UNK         0.0000 
   1257 H(6)        7.5683   15.0457    9.7711 H         1 UNK         0.0000 
   1258 H(7)        9.1224   14.5620    7.1624 H         1 UNK         0.0000 
   1259 H(8)        8.0474   15.7436    7.8021 H         1 UNK         0.0000 
   1260 H(9)        9.7247   16.1095    7.4544 H         1 UNK         0.0000 
   1261 O(1)        9.8103   10.1494   12.3169 O.3       1 UNK         0.0000 
   1262 O(2)        7.8125    3.9806   12.2011 O.2       1 UNK         0.0000 
   1263 N(1)        9.9936    4.5850   12.3888 N.am      1 UNK         0.0000 
   1264 C(1)        9.8942    5.9935   12.3376 C.ar      1 UNK         0.0000 
   1265 C(2)        8.8120    6.6817   11.7893 C.ar      1 UNK         0.0000 
   1266 C(3)        8.8050    8.0735   11.7858 C.ar      1 UNK         0.0000 
   1267 C(4)        9.8750    8.7881   12.3181 C.ar      1 UNK         0.0000 
   1268 C(5)       10.9706    8.1002   12.8383 C.ar      1 UNK         0.0000 
   1269 C(6)       10.9759    6.7126   12.8470 C.ar      1 UNK         0.0000 
   1270 C(7)        9.0029    3.6797   12.3420 C.2       1 UNK         0.0000 
   1271 C(8)        9.4437    2.2456   12.4630 C.3       1 UNK         0.0000 
   1272 H(1)        7.9715    6.1391   11.3746 H         1 UNK         0.0000 
   1273 H(2)        7.9542    8.5900   11.3587 H         1 UNK         0.0000 
   1274 H(3)       11.8138    8.6494   13.2386 H         1 UNK         0.0000 
   1275 H(4)       11.8266    6.1791   13.2530 H         1 UNK         0.0000 
   1276 H(5)       10.6837   10.5320   12.4649 H         1 UNK         0.0000 
   1277 H(6)       10.9196    4.2215   12.5580 H         1 UNK         0.0000 
   1278 H(7)        9.3655    1.7825   11.5138 H         1 UNK         0.0000 
   1279 H(8)       10.4405    2.1474   12.8070 H         1 UNK         0.0000 
   1280 H(9)        8.7632    1.7279   13.0878 H         1 UNK         0.0000 
   1281 O(1)       14.1442   18.3650   13.4097 O.3       1 UNK         0.0000 
   1282 O(2)       12.1464   17.1249   19.4537 O.2       1 UNK         0.0000 
   1283 N(1)       14.3275   17.0743   18.8228 N.am      1 UNK         0.0000 
   1284 C(1)       14.2281   17.4332   17.4599 C.ar      1 UNK         0.0000 
   1285 C(2)       13.1459   18.1191   16.9087 C.ar      1 UNK         0.0000 
   1286 C(3)       13.1389   18.4278   15.5516 C.ar      1 UNK         0.0000 
   1287 C(4)       14.2089   18.0652   14.7376 C.ar      1 UNK         0.0000 
   1288 C(5)       15.3045   17.4068   15.2947 C.ar      1 UNK         0.0000 
   1289 C(6)       15.3098   17.0939   16.6465 C.ar      1 UNK         0.0000 
   1290 C(7)       13.3368   16.9215   19.7163 C.2       1 UNK         0.0000 
   1291 C(8)       13.7776   16.4888   21.0890 C.3       1 UNK         0.0000 
   1292 H(1)       12.3054   18.4047   17.5290 H         1 UNK         0.0000 
   1293 H(2)       12.2881   18.9577   15.1413 H         1 UNK         0.0000 
   1294 H(3)       16.1477   17.1367   14.6710 H         1 UNK         0.0000 
   1295 H(4)       16.1604   16.5809   17.0780 H         1 UNK         0.0000 
   1296 H(5)       15.0176   18.3045   13.0039 H         1 UNK         0.0000 
   1297 H(6)       15.2535   16.8295   19.1403 H         1 UNK         0.0000 
   1298 H(7)       13.6993   17.3133   21.7490 H         1 UNK         0.0000 
   1299 H(8)       14.7744   16.1317   21.1093 H         1 UNK         0.0000 
   1300 H(9)       13.0971   15.7657   21.4570 H         1 UNK         0.0000 
   1301 O(1)       18.4977    7.0435   16.5945 O.3       1 UNK         0.0000 
   1302 O(2)       20.4955   13.2123   16.7103 O.2       1 UNK         0.0000 
   1303 N(1)       18.3144   12.6079   16.5226 N.am      1 UNK         0.0000 
   1304 C(1)       18.4138   11.1994   16.5738 C.ar      1 UNK         0.0000 
   1305 C(2)       19.4960   10.5112   17.1221 C.ar      1 UNK         0.0000 
   1306 C(3)       19.5030    9.1194   17.1257 C.ar      1 UNK         0.0000 
   1307 C(4)       18.4330    8.4048   16.5933 C.ar      1 UNK         0.0000 
   1308 C(5)       17.3374    9.0927   16.0731 C.ar      1 UNK         0.0000 
   1309 C(6)       17.3321   10.4803   16.0644 C.ar      1 UNK         0.0000 
   1310 C(7)       19.3051   13.5132   16.5694 C.2       1 UNK         0.0000 
   1311 C(8)       18.8643   14.9473   16.4484 C.3       1 UNK         0.0000 
   1312 H(1)       20.3365   11.0538   17.5368 H         1 UNK         0.0000 
   1313 H(2)       20.3538    8.6029   17.5527 H         1 UNK         0.0000 
   1314 H(3)       16.4942    8.5435   15.6728 H         1 UNK         0.0000 
   1315 H(4)       16.4814   11.0138   15.6585 H         1 UNK         0.0000 
   1316 H(5)       17.6243    6.6609   16.4465 H         1 UNK         0.0000 
   1317 H(6)       17.3884   12.9713   16.3534 H         1 UNK         0.0000 
   1318 H(7)       18.9425   15.4104   17.3976 H         1 UNK         0.0000 
   1319 H(8)       17.8675   15.0455   16.1044 H         1 UNK         0.0000 
   1320 H(9)       19.5448   15.4650   15.8236 H         1 UNK         0.0000 
   1321 O(1)       14.1638    4.5589   22.6641 O.3       1 UNK         0.0000 
   1322 O(2)       16.1616    5.7989   16.6201 O.2       1 UNK         0.0000 
   1323 N(1)       13.9805    5.8496   17.2510 N.am      1 UNK         0.0000 
   1324 C(1)       14.0799    5.4907   18.6139 C.ar      1 UNK         0.0000 
   1325 C(2)       15.1621    4.8048   19.1651 C.ar      1 UNK         0.0000 
   1326 C(3)       15.1691    4.4960   20.5223 C.ar      1 UNK         0.0000 
   1327 C(4)       14.0991    4.8587   21.3362 C.ar      1 UNK         0.0000 
   1328 C(5)       13.0035    5.5171   20.7791 C.ar      1 UNK         0.0000 
   1329 C(6)       12.9982    5.8299   19.4273 C.ar      1 UNK         0.0000 
   1330 C(7)       14.9712    6.0024   16.3575 C.2       1 UNK         0.0000 
   1331 C(8)       14.5304    6.4350   14.9848 C.3       1 UNK         0.0000 
   1332 H(1)       16.0026    4.5191   18.5448 H         1 UNK         0.0000 
   1333 H(2)       16.0199    3.9661   20.9325 H         1 UNK         0.0000 
   1334 H(3)       12.1603    5.7872   21.4028 H         1 UNK         0.0000 
   1335 H(4)       12.1476    6.3430   18.9958 H         1 UNK         0.0000 
   1336 H(5)       13.2904    4.6194   23.0699 H         1 UNK         0.0000 
   1337 H(6)       13.0545    6.0943   16.9335 H         1 UNK         0.0000 
   1338 H(7)       14.6087    5.6106   14.3248 H         1 UNK         0.0000 
   1339 H(8)       13.5336    6.7922   14.9645 H         1 UNK         0.0000 
   1340 H(9)       15.2109    7.1582   14.6168 H         1 UNK         0.0000 
   1341 O(1)       16.8873   15.8804   19.4793 O.3       1 UNK         0.0000 
   1342 O(2)       14.8895    9.7116   19.3635 O.2       1 UNK         0.0000 
   1343 N(1)       17.0706   10.3160   19.5512 N.am      1 UNK         0.0000 
   1344 C(1)       16.9712   11.7244   19.5000 C.ar      1 UNK         0.0000 
   1345 C(2)       15.8890   12.4126   18.9517 C.ar      1 UNK         0.0000 
   1346 C(3)       15.8820   13.8044   18.9482 C.ar      1 UNK         0.0000 
   1347 C(4)       16.9520   14.5191   19.4805 C.ar      1 UNK         0.0000 
   1348 C(5)       18.0476   13.8311   20.0007 C.ar      1 UNK         0.0000 
   1349 C(6)       18.0529   12.4436   20.0094 C.ar      1 UNK         0.0000 
   1350 C(7)       16.0799    9.4107   19.5044 C.2       1 UNK         0.0000 
   1351 C(8)       16.5207    7.9766   19.6254 C.3       1 UNK         0.0000 
   1352 H(1)       15.0485   11.8701   18.5370 H         1 UNK         0.0000 
   1353 H(2)       15.0312   14.3209   18.5211 H         1 UNK         0.0000 
   1354 H(3)       18.8908   14.3804   20.4010 H         1 UNK         0.0000 
   1355 H(4)       18.9036   11.9101   20.4154 H         1 UNK         0.0000 
   1356 H(5)       17.7607   16.2630   19.6273 H         1 UNK         0.0000 
   1357 H(6)       17.9966    9.9525   19.7204 H         1 UNK         0.0000 
   1358 H(7)       16.4425    7.5134   18.6762 H         1 UNK         0.0000 
   1359 H(8)       17.5175    7.8784   19.9694 H         1 UNK         0.0000 
   1360 H(9)       15.8402    7.4589   20.2502 H         1 UNK         0.0000 
   1361 O(1)       12.5534    9.4136   20.5721 O.3       1 UNK         0.0000 
   1362 O(2)       10.5556    8.1736   26.6161 O.2       1 UNK         0.0000 
   1363 N(1)       12.7367    8.1229   25.9852 N.am      1 UNK         0.0000 
   1364 C(1)       12.6373    8.4818   24.6223 C.ar      1 UNK         0.0000 
   1365 C(2)       11.5551    9.1677   24.0711 C.ar      1 UNK         0.0000 
   1366 C(3)       11.5481    9.4765   22.7140 C.ar      1 UNK         0.0000 
   1367 C(4)       12.6181    9.1138   21.9000 C.ar      1 UNK         0.0000 
   1368 C(5)       13.7137    8.4554   22.4571 C.ar      1 UNK         0.0000 
   1369 C(6)       13.7190    8.1426   23.8089 C.ar      1 UNK         0.0000 
   1370 C(7)       11.7460    7.9701   26.8787 C.2       1 UNK         0.0000 
   1371 C(8)       12.1868    7.5375   28.2514 C.3       1 UNK         0.0000 
   1372 H(1)       10.7146    9.4534   24.6914 H         1 UNK         0.0000 
   1373 H(2)       10.6973   10.0064   22.3037 H         1 UNK         0.0000 
   1374 H(3)       14.5569    8.1853   21.8334 H         1 UNK         0.0000 
   1375 H(4)       14.5697    7.6295   24.2404 H         1 UNK         0.0000 
   1376 H(5)       13.4269    9.3531   20.1663 H         1 UNK         0.0000 
   1377 H(6)       13.6627    7.8782   26.3027 H         1 UNK         0.0000 
   1378 H(7)       12.1086    8.3619   28.9114 H         1 UNK         0.0000 
   1379 H(8)       13.1836    7.1803   28.2717 H         1 UNK         0.0000 
   1380 H(9)       11.5063    6.8143   28.6194 H         1 UNK         0.0000 
   1381 O(1)       11.4207   12.7745   23.7569 O.3       1 UNK         0.0000 
   1382 O(2)       13.4185   18.9433   23.8727 O.2       1 UNK         0.0000 
   1383 N(1)       11.2374   18.3389   23.6850 N.am      1 UNK         0.0000 
   1384 C(1)       11.3368   16.9304   23.7362 C.ar      1 UNK         0.0000 
   1385 C(2)       12.4190   16.2422   24.2845 C.ar      1 UNK         0.0000 
   1386 C(3)       12.4260   14.8504   24.2881 C.ar      1 UNK         0.0000 
   1387 C(4)       11.3560   14.1358   23.7557 C.ar      1 UNK         0.0000 
   1388 C(5)       10.2604   14.8237   23.2355 C.ar      1 UNK         0.0000 
   1389 C(6)       10.2551   16.2112   23.2268 C.ar      1 UNK         0.0000 
   1390 C(7)       12.2281   19.2442   23.7318 C.2       1 UNK         0.0000 
   1391 C(8)       11.7873   20.6783   23.6108 C.3       1 UNK         0.0000 
   1392 H(1)       13.2595   16.7847   24.6992 H         1 UNK         0.0000 
   1393 H(2)       13.2768   14.3339   24.7151 H         1 UNK         0.0000 
   1394 H(3)        9.4172   14.2744   22.8352 H         1 UNK         0.0000 
   1395 H(4)        9.4044   16.7448   22.8209 H         1 UNK         0.0000 
   1396 H(5)       10.5473   12.3919   23.6089 H         1 UNK         0.0000 
   1397 H(6)       10.3114   18.7023   23.5158 H         1 UNK         0.0000 
   1398 H(7)       11.8655   21.1414   24.5600 H         1 UNK         0.0000 
   1399 H(8)       10.7905   20.7764   23.2668 H         1 UNK         0.0000 
   1400 H(9)       12.4678   21.1960   22.9860 H         1 UNK         0.0000 
   1401 O(1)       15.7546    7.7793    8.3393 O.3       1 UNK         0.0000 
   1402 O(2)       17.7524    9.0193    2.2953 O.2       1 UNK         0.0000 
   1403 N(1)       15.5713    9.0700    2.9262 N.am      1 UNK         0.0000 
   1404 C(1)       15.6707    8.7111    4.2891 C.ar      1 UNK         0.0000 
   1405 C(2)       16.7529    8.0252    4.8403 C.ar      1 UNK         0.0000 
   1406 C(3)       16.7599    7.7164    6.1975 C.ar      1 UNK         0.0000 
   1407 C(4)       15.6899    8.0791    7.0114 C.ar      1 UNK         0.0000 
   1408 C(5)       14.5943    8.7375    6.4543 C.ar      1 UNK         0.0000 
   1409 C(6)       14.5890    9.0503    5.1025 C.ar      1 UNK         0.0000 
   1410 C(7)       16.5620    9.2228    2.0327 C.2       1 UNK         0.0000 
   1411 C(8)       16.1212    9.6554    0.6600 C.3       1 UNK         0.0000 
   1412 H(1)       17.5934    7.7395    4.2200 H         1 UNK         0.0000 
   1413 H(2)       17.6107    7.1865    6.6077 H         1 UNK         0.0000 
   1414 H(3)       13.7511    9.0076    7.0780 H         1 UNK         0.0000 
   1415 H(4)       13.7383    9.5634    4.6710 H         1 UNK         0.0000 
   1416 H(5)       14.8811    7.8398    8.7451 H         1 UNK         0.0000 
   1417 H(6)       14.6453    9.3147    2.6087 H         1 UNK         0.0000 
   1418 H(7)       16.1994    8.8310    0.0000 H         1 UNK         0.0000 
   1419 H(8)       15.1244   10.0126    0.6397 H         1 UNK         0.0000 
   1420 H(9)       16.8017   10.3786    0.2920 H         1 UNK         0.0000 
   1421 O(1)       18.4781   19.1008    5.1545 O.3       1 UNK         0.0000 
   1422 O(2)       16.4803   12.9320    5.0387 O.2       1 UNK         0.0000 
   1423 N(1)       18.6614   13.5364    5.2264 N.am      1 UNK         0.0000 
   1424 C(1)       18.5620   14.9448    5.1752 C.ar      1 UNK         0.0000 
   1425 C(2)       17.4798   15.6330    4.6269 C.ar      1 UNK         0.0000 
   1426 C(3)       17.4728   17.0248    4.6234 C.ar      1 UNK         0.0000 
   1427 C(4)       18.5428   17.7395    5.1557 C.ar      1 UNK         0.0000 
   1428 C(5)       19.6384   17.0515    5.6759 C.ar      1 UNK         0.0000 
   1429 C(6)       19.6437   15.6640    5.6846 C.ar      1 UNK         0.0000 
   1430 C(7)       17.6706   12.6311    5.1796 C.2       1 UNK         0.0000 
   1431 C(8)       18.1115   11.1969    5.3006 C.3       1 UNK         0.0000 
   1432 H(1)       16.6393   15.0905    4.2122 H         1 UNK         0.0000 
   1433 H(2)       16.6220   17.5413    4.1963 H         1 UNK         0.0000 
   1434 H(3)       20.4816   17.6008    6.0762 H         1 UNK         0.0000 
   1435 H(4)       20.4943   15.1305    6.0906 H         1 UNK         0.0000 
   1436 H(5)       19.3515   19.4834    5.3025 H         1 UNK         0.0000 
   1437 H(6)       19.5874   13.1729    5.3956 H         1 UNK         0.0000 
   1438 H(7)       18.0332   10.7338    4.3514 H         1 UNK         0.0000 
   1439 H(8)       19.1083   11.0988    5.6446 H         1 UNK         0.0000 
   1440 H(9)       17.4310   10.6793    5.9254 H         1 UNK         0.0000 
   1441 O(1)       15.7350   27.3164    6.2473 O.3       1 UNK         0.0000 
   1442 O(2)       13.7372   26.0763   12.2913 O.2       1 UNK         0.0000 
   1443 N(1)       15.9183   26.0256   11.6604 N.am      1 UNK         0.0000 
   1444 C(1)       15.8189   26.3846   10.2975 C.ar      1 UNK         0.0000 
   1445 C(2)       14.7367   27.0704    9.7463 C.ar      1 UNK         0.0000 
   1446 C(3)       14.7297   27.3792    8.3892 C.ar      1 UNK         0.0000 
   1447 C(4)       15.7997   27.0165    7.5752 C.ar      1 UNK         0.0000 
   1448 C(5)       16.8953   26.3582    8.1323 C.ar      1 UNK         0.0000 
   1449 C(6)       16.9006   26.0453    9.4841 C.ar      1 UNK         0.0000 
   1450 C(7)       14.9275   25.8728   12.5539 C.2       1 UNK         0.0000 
   1451 C(8)       15.3684   25.4402   13.9266 C.3       1 UNK         0.0000 
   1452 H(1)       13.8962   27.3561   10.3666 H         1 UNK         0.0000 
   1453 H(2)       13.8789   27.9091    7.9789 H         1 UNK         0.0000 
   1454 H(3)       17.7385   26.0881    7.5086 H         1 UNK         0.0000 
   1455 H(4)       17.7512   25.5322    9.9156 H         1 UNK         0.0000 
   1456 H(5)       16.6084   27.2558    5.8415 H         1 UNK         0.0000 
   1457 H(6)       16.8443   25.7809   11.9779 H         1 UNK         0.0000 
   1458 H(7)       15.2901   26.2646   14.5866 H         1 UNK         0.0000 
   1459 H(8)       16.3652   25.0830   13.9469 H         1 UNK         0.0000 
   1460 H(9)       14.6879   24.7171   14.2946 H         1 UNK         0.0000 
   1461 O(1)       20.0885   15.9949    9.4321 O.3       1 UNK         0.0000 
   1462 O(2)       22.0863   22.1637    9.5479 O.2       1 UNK         0.0000 
   1463 N(1)       19.9051   21.5592    9.3602 N.am      1 UNK         0.0000 
   1464 C(1)       20.0046   20.1508    9.4114 C.ar      1 UNK         0.0000 
   1465 C(2)       21.0868   19.4626    9.9597 C.ar      1 UNK         0.0000 
   1466 C(3)       21.0938   18.0708    9.9633 C.ar      1 UNK         0.0000 
   1467 C(4)       20.0238   17.3562    9.4309 C.ar      1 UNK         0.0000 
   1468 C(5)       18.9282   18.0441    8.9107 C.ar      1 UNK         0.0000 
   1469 C(6)       18.9228   19.4316    8.9020 C.ar      1 UNK         0.0000 
   1470 C(7)       20.8959   22.4646    9.4070 C.2       1 UNK         0.0000 
   1471 C(8)       20.4551   23.8987    9.2860 C.3       1 UNK         0.0000 
   1472 H(1)       21.9273   20.0051   10.3744 H         1 UNK         0.0000 
   1473 H(2)       21.9446   17.5543   10.3903 H         1 UNK         0.0000 
   1474 H(3)       18.0850   17.4948    8.5104 H         1 UNK         0.0000 
   1475 H(4)       18.0722   19.9652    8.4961 H         1 UNK         0.0000 
   1476 H(5)       19.2150   15.6123    9.2841 H         1 UNK         0.0000 
   1477 H(6)       18.9792   21.9227    9.1910 H         1 UNK         0.0000 
   1478 H(7)       20.5333   24.3618   10.2352 H         1 UNK         0.0000 
   1479 H(8)       19.4583   23.9968    8.9420 H         1 UNK         0.0000 
   1480 H(9)       21.1355   24.4164    8.6612 H         1 UNK         0.0000 
   1481 O(1)       10.2684   28.1926   15.5017 O.3       1 UNK         0.0000 
   1482 O(2)       12.2662   29.4326    9.4577 O.2       1 UNK         0.0000 
   1483 N(1)       10.0850   29.4833   10.0886 N.am      1 UNK         0.0000 
   1484 C(1)       10.1845   29.1244   11.4515 C.ar      1 UNK         0.0000 
   1485 C(2)       11.2666   28.4385   12.0027 C.ar      1 UNK         0.0000 
   1486 C(3)       11.2737   28.1297   13.3599 C.ar      1 UNK         0.0000 
   1487 C(4)       10.2037   28.4924   14.1738 C.ar      1 UNK         0.0000 
   1488 C(5)        9.1080   29.1508   13.6167 C.ar      1 UNK         0.0000 
   1489 C(6)        9.1027   29.4636   12.2649 C.ar      1 UNK         0.0000 
   1490 C(7)       11.0758   29.6361    9.1951 C.2       1 UNK         0.0000 
   1491 C(8)       10.6350   30.0687    7.8224 C.3       1 UNK         0.0000 
   1492 H(1)       12.1072   28.1528   11.3824 H         1 UNK         0.0000 
   1493 H(2)       12.1245   27.5998   13.7701 H         1 UNK         0.0000 
   1494 H(3)        8.2649   29.4209   14.2404 H         1 UNK         0.0000 
   1495 H(4)        8.2521   29.9767   11.8334 H         1 UNK         0.0000 
   1496 H(5)        9.3949   28.2531   15.9075 H         1 UNK         0.0000 
   1497 H(6)        9.1591   29.7280    9.7711 H         1 UNK         0.0000 
   1498 H(7)       10.7132   29.2443    7.1624 H         1 UNK         0.0000 
   1499 H(8)        9.6382   30.4259    7.8021 H         1 UNK         0.0000 
   1500 H(9)       11.3154   30.7919    7.4544 H         1 UNK         0.0000 
   1501 O(1)       11.4011   24.8317   12.3169 O.3       1 UNK         0.0000 
   1502 O(2)        9.4033   18.6629   12.2011 O.2       1 UNK         0.0000 
   1503 N(1)       11.5844   19.2673   12.3888 N.am      1 UNK         0.0000 
   1504 C(1)       11.4850   20.6758   12.3376 C.ar      1 UNK         0.0000 
   1505 C(2)       10.4028   21.3640   11.7893 C.ar      1 UNK         0.0000 
   1506 C(3)       10.3958   22.7558   11.7858 C.ar      1 UNK         0.0000 
   1507 C(4)       11.4658   23.4704   12.3181 C.ar      1 UNK         0.0000 
   1508 C(5)       12.5614   22.7825   12.8383 C.ar      1 UNK         0.0000 
   1509 C(6)       12.5667   21.3950   12.8470 C.ar      1 UNK         0.0000 
   1510 C(7)       10.5936   18.3620   12.3420 C.2       1 UNK         0.0000 
   1511 C(8)       11.0345   16.9279   12.4630 C.3       1 UNK         0.0000 
   1512 H(1)        9.5623   20.8215   11.3746 H         1 UNK         0.0000 
   1513 H(2)        9.5450   23.2723   11.3587 H         1 UNK         0.0000 
   1514 H(3)       13.4046   23.3317   13.2386 H         1 UNK         0.0000 
   1515 H(4)       13.4173   20.8614   13.2530 H         1 UNK         0.0000 
   1516 H(5)       12.2745   25.2143   12.4649 H         1 UNK         0.0000 
   1517 H(6)       12.5104   18.9039   12.5580 H         1 UNK         0.0000 
   1518 H(7)       10.9562   16.4648   11.5138 H         1 UNK         0.0000 
   1519 H(8)       12.0313   16.8298   12.8070 H         1 UNK         0.0000 
   1520 H(9)       10.3540   16.4102   13.0878 H         1 UNK         0.0000 
   1521 O(1)       15.7350   33.0473   13.4097 O.3       1 UNK         0.0000 
   1522 O(2)       13.7372   31.8072   19.4537 O.2       1 UNK         0.0000 
   1523 N(1)       15.9183   31.7566   18.8228 N.am      1 UNK         0.0000 
   1524 C(1)       15.8189   32.1155   17.4599 C.ar      1 UNK         0.0000 
   1525 C(2)       14.7367   32.8014   16.9087 C.ar      1 UNK         0.0000 
   1526 C(3)       14.7297   33.1102   15.5516 C.ar      1 UNK         0.0000 
   1527 C(4)       15.7997   32.7475   14.7376 C.ar      1 UNK         0.0000 
   1528 C(5)       16.8953   32.0891   15.2947 C.ar      1 UNK         0.0000 
   1529 C(6)       16.9006   31.7763   16.6465 C.ar      1 UNK         0.0000 
   1530 C(7)       14.9275   31.6038   19.7163 C.2       1 UNK         0.0000 
   1531 C(8)       15.3684   31.1711   21.0890 C.3       1 UNK         0.0000 
   1532 H(1)       13.8962   33.0871   17.5290 H         1 UNK         0.0000 
   1533 H(2)       13.8789   33.6401   15.1413 H         1 UNK         0.0000 
   1534 H(3)       17.7385   31.8190   14.6710 H         1 UNK         0.0000 
   1535 H(4)       17.7512   31.2632   17.0780 H         1 UNK         0.0000 
   1536 H(5)       16.6084   32.9868   13.0039 H         1 UNK         0.0000 
   1537 H(6)       16.8443   31.5119   19.1403 H         1 UNK         0.0000 
   1538 H(7)       15.2901   31.9956   21.7490 H         1 UNK         0.0000 
   1539 H(8)       16.3652   30.8140   21.1093 H         1 UNK         0.0000 
   1540 H(9)       14.6879   30.4480   21.4570 H         1 UNK         0.0000 
   1541 O(1)       20.0885   21.7258   16.5945 O.3       1 UNK         0.0000 
   1542 O(2)       22.0863   27.8946   16.7103 O.2       1 UNK         0.0000 
   1543 N(1)       19.9051   27.2902   16.5226 N.am      1 UNK         0.0000 
   1544 C(1)       20.0046   25.8818   16.5738 C.ar      1 UNK         0.0000 
   1545 C(2)       21.0868   25.1936   17.1221 C.ar      1 UNK         0.0000 
   1546 C(3)       21.0938   23.8017   17.1257 C.ar      1 UNK         0.0000 
   1547 C(4)       20.0238   23.0871   16.5933 C.ar      1 UNK         0.0000 
   1548 C(5)       18.9282   23.7751   16.0731 C.ar      1 UNK         0.0000 
   1549 C(6)       18.9228   25.1626   16.0644 C.ar      1 UNK         0.0000 
   1550 C(7)       20.8959   28.1955   16.5694 C.2       1 UNK         0.0000 
   1551 C(8)       20.4551   29.6296   16.4484 C.3       1 UNK         0.0000 
   1552 H(1)       21.9273   25.7361   17.5368 H         1 UNK         0.0000 
   1553 H(2)       21.9446   23.2853   17.5527 H         1 UNK         0.0000 
   1554 H(3)       18.0850   23.2258   15.6728 H         1 UNK         0.0000 
   1555 H(4)       18.0722   25.6961   15.6585 H         1 UNK         0.0000 
   1556 H(5)       19.2150   21.3432   16.4465 H         1 UNK         0.0000 
   1557 H(6)       18.9792   27.6537   16.3534 H         1 UNK         0.0000 
   1558 H(7)       20.5333   30.0928   17.3976 H         1 UNK         0.0000 
   1559 H(8)       19.4583   29.7278   16.1044 H         1 UNK         0.0000 
   1560 H(9)       21.1355   30.1473   15.8236 H         1 UNK         0.0000 
   1561 O(1)       15.7546   19.2412   22.6641 O.3       1 UNK         0.0000 
   1562 O(2)       17.7524   20.4813   16.6201 O.2       1 UNK         0.0000 
   1563 N(1)       15.5713   20.5319   17.2510 N.am      1 UNK         0.0000 
   1564 C(1)       15.6707   20.1730   18.6139 C.ar      1 UNK         0.0000 
   1565 C(2)       16.7529   19.4871   19.1651 C.ar      1 UNK         0.0000 
   1566 C(3)       16.7599   19.1784   20.5223 C.ar      1 UNK         0.0000 
   1567 C(4)       15.6899   19.5410   21.3362 C.ar      1 UNK         0.0000 
   1568 C(5)       14.5943   20.1994   20.7791 C.ar      1 UNK         0.0000 
   1569 C(6)       14.5890   20.5123   19.4273 C.ar      1 UNK         0.0000 
   1570 C(7)       16.5620   20.6847   16.3575 C.2       1 UNK         0.0000 
   1571 C(8)       16.1212   21.1174   14.9848 C.3       1 UNK         0.0000 
   1572 H(1)       17.5934   19.2015   18.5448 H         1 UNK         0.0000 
   1573 H(2)       17.6107   18.6484   20.9325 H         1 UNK         0.0000 
   1574 H(3)       13.7511   20.4695   21.4028 H         1 UNK         0.0000 
   1575 H(4)       13.7383   21.0253   18.9958 H         1 UNK         0.0000 
   1576 H(5)       14.8811   19.3017   23.0699 H         1 UNK         0.0000 
   1577 H(6)       14.6453   20.7767   16.9335 H         1 UNK         0.0000 
   1578 H(7)       16.1994   20.2929   14.3248 H         1 UNK         0.0000 
   1579 H(8)       15.1244   21.4745   14.9645 H         1 UNK         0.0000 
   1580 H(9)       16.8017   21.8405   14.6168 H         1 UNK         0.0000 
   1581 O(1)       18.4781   30.5627   19.4793 O.3       1 UNK         0.0000 
   1582 O(2)       16.4803   24.3939   19.3635 O.2       1 UNK         0.0000 
   1583 N(1)       18.6614   24.9983   19.5512 N.am      1 UNK         0.0000 
   1584 C(1)       18.5620   26.4068   19.5000 C.ar      1 UNK         0.0000 
   1585 C(2)       17.4798   27.0950   18.9517 C.ar      1 UNK         0.0000 
   1586 C(3)       17.4728   28.4868   18.9482 C.ar      1 UNK         0.0000 
   1587 C(4)       18.5428   29.2014   19.4805 C.ar      1 UNK         0.0000 
   1588 C(5)       19.6384   28.5135   20.0007 C.ar      1 UNK         0.0000 
   1589 C(6)       19.6437   27.1259   20.0094 C.ar      1 UNK         0.0000 
   1590 C(7)       17.6706   24.0930   19.5044 C.2       1 UNK         0.0000 
   1591 C(8)       18.1115   22.6589   19.6254 C.3       1 UNK         0.0000 
   1592 H(1)       16.6393   26.5524   18.5370 H         1 UNK         0.0000 
   1593 H(2)       16.6220   29.0033   18.5211 H         1 UNK         0.0000 
   1594 H(3)       20.4816   29.0627   20.4010 H         1 UNK         0.0000 
   1595 H(4)       20.4943   26.5924   20.4154 H         1 UNK         0.0000 
   1596 H(5)       19.3515   30.9453   19.6273 H         1 UNK         0.0000 
   1597 H(6)       19.5874   24.6348   19.7204 H         1 UNK         0.0000 
   1598 H(7)       18.0332   22.1958   18.6762 H         1 UNK         0.0000 
   1599 H(8)       19.1083   22.5607   19.9694 H         1 UNK         0.0000 
   1600 H(9)       17.4310   22.1412   20.2502 H         1 UNK         0.0000 
   1601 O(1)       14.1442   24.0960   20.5721 O.3       1 UNK         0.0000 
   1602 O(2)       12.1464   22.8559   26.6161 O.2       1 UNK         0.0000 
   1603 N(1)       14.3275   22.8052   25.9852 N.am      1 UNK         0.0000 
   1604 C(1)       14.2281   23.1642   24.6223 C.ar      1 UNK         0.0000 
   1605 C(2)       13.1459   23.8500   24.0711 C.ar      1 UNK         0.0000 
   1606 C(3)       13.1389   24.1588   22.7140 C.ar      1 UNK         0.0000 
   1607 C(4)       14.2089   23.7962   21.9000 C.ar      1 UNK         0.0000 
   1608 C(5)       15.3045   23.1378   22.4571 C.ar      1 UNK         0.0000 
   1609 C(6)       15.3098   22.8249   23.8089 C.ar      1 UNK         0.0000 
   1610 C(7)       13.3368   22.6524   26.8787 C.2       1 UNK         0.0000 
   1611 C(8)       13.7776   22.2198   28.2514 C.3       1 UNK         0.0000 
   1612 H(1)       12.3054   24.1357   24.6914 H         1 UNK         0.0000 
   1613 H(2)       12.2881   24.6887   22.3037 H         1 UNK         0.0000 
   1614 H(3)       16.1477   22.8677   21.8334 H         1 UNK         0.0000 
   1615 H(4)       16.1604   22.3118   24.2404 H         1 UNK         0.0000 
   1616 H(5)       15.0176   24.0354   20.1663 H         1 UNK         0.0000 
   1617 H(6)       15.2535   22.5605   26.3027 H         1 UNK         0.0000 
   1618 H(7)       13.6993   23.0442   28.9114 H         1 UNK         0.0000 
   1619 H(8)       14.7744   21.8626   28.2717 H         1 UNK         0.0000 
   1620 H(9)       13.0971   21.4967   28.6194 H         1 UNK         0.0000 
   1621 O(1)       13.0115   27.4568   23.7569 O.3       1 UNK         0.0000 
   1622 O(2)       15.0093   33.6256   23.8727 O.2       1 UNK         0.0000 
   1623 N(1)       12.8281   33.0212   23.6850 N.am      1 UNK         0.0000 
   1624 C(1)       12.9276   31.6127   23.7362 C.ar      1 UNK         0.0000 
   1625 C(2)       14.0098   30.9245   24.2845 C.ar      1 UNK         0.0000 
   1626 C(3)       14.0168   29.5327   24.2881 C.ar      1 UNK         0.0000 
   1627 C(4)       12.9468   28.8181   23.7557 C.ar      1 UNK         0.0000 
   1628 C(5)       11.8512   29.5060   23.2355 C.ar      1 UNK         0.0000 
   1629 C(6)       11.8458   30.8936   23.2268 C.ar      1 UNK         0.0000 
   1630 C(7)       13.8189   33.9265   23.7318 C.2       1 UNK         0.0000 
   1631 C(8)       13.3781   35.3606   23.6108 C.3       1 UNK         0.0000 
   1632 H(1)       14.8503   31.4671   24.6992 H         1 UNK         0.0000 
   1633 H(2)       14.8676   29.0162   24.7151 H         1 UNK         0.0000 
   1634 H(3)       11.0080   28.9568   22.8352 H         1 UNK         0.0000 
   1635 H(4)       10.9952   31.4271   22.8209 H         1 UNK         0.0000 
   1636 H(5)       12.1380   27.0742   23.6089 H         1 UNK         0.0000 
   1637 H(6)       11.9022   33.3846   23.5158 H         1 UNK         0.0000 
   1638 H(7)       13.4563   35.8237   24.5600 H         1 UNK         0.0000 
   1639 H(8)       12.3813   35.4588   23.2668 H         1 UNK         0.0000 
   1640 H(9)       14.0585   35.8783   22.9860 H         1 UNK         0.0000 
   1641 O(1)       17.3454   22.4616    8.3393 O.3       1 UNK         0.0000 
   1642 O(2)       19.3432   23.7017    2.2953 O.2       1 UNK         0.0000 
   1643 N(1)       17.1620   23.7523    2.9262 N.am      1 UNK         0.0000 
   1644 C(1)       17.2615   23.3934    4.2891 C.ar      1 UNK         0.0000 
   1645 C(2)       18.3436   22.7075    4.8403 C.ar      1 UNK         0.0000 
   1646 C(3)       18.3507   22.3988    6.1975 C.ar      1 UNK         0.0000 
   1647 C(4)       17.2807   22.7614    7.0114 C.ar      1 UNK         0.0000 
   1648 C(5)       16.1850   23.4198    6.4543 C.ar      1 UNK         0.0000 
   1649 C(6)       16.1797   23.7327    5.1025 C.ar      1 UNK         0.0000 
   1650 C(7)       18.1528   23.9051    2.0327 C.2       1 UNK         0.0000 
   1651 C(8)       17.7120   24.3378    0.6600 C.3       1 UNK         0.0000 
   1652 H(1)       19.1842   22.4219    4.2200 H         1 UNK         0.0000 
   1653 H(2)       19.2015   21.8688    6.6077 H         1 UNK         0.0000 
   1654 H(3)       15.3419   23.6899    7.0780 H         1 UNK         0.0000 
   1655 H(4)       15.3291   24.2457    4.6710 H         1 UNK         0.0000 
   1656 H(5)       16.4719   22.5221    8.7451 H         1 UNK         0.0000 
   1657 H(6)       16.2361   23.9971    2.6087 H         1 UNK         0.0000 
   1658 H(7)       17.7902   23.5133    0.0000 H         1 UNK         0.0000 
   1659 H(8)       16.7152   24.6949    0.6397 H         1 UNK         0.0000 
   1660 H(9)       18.3924   25.0609    0.2920 H         1 UNK         0.0000 
   1661 O(1)       20.0689   33.7831    5.1545 O.3       1 UNK         0.0000 
   1662 O(2)       18.0711   27.6143    5.0387 O.2       1 UNK         0.0000 
   1663 N(1)       20.2522   28.2187    5.2264 N.am      1 UNK         0.0000 
   1664 C(1)       20.1527   29.6272    5.1752 C.ar      1 UNK         0.0000 
   1665 C(2)       19.0706   30.3154    4.6269 C.ar      1 UNK         0.0000 
   1666 C(3)       19.0636   31.7072    4.6234 C.ar      1 UNK         0.0000 
   1667 C(4)       20.1336   32.4218    5.1557 C.ar      1 UNK         0.0000 
   1668 C(5)       21.2292   31.7339    5.6759 C.ar      1 UNK         0.0000 
   1669 C(6)       21.2345   30.3463    5.6846 C.ar      1 UNK         0.0000 
   1670 C(7)       19.2614   27.3134    5.1796 C.2       1 UNK         0.0000 
   1671 C(8)       19.7023   25.8793    5.3006 C.3       1 UNK         0.0000 
   1672 H(1)       18.2301   29.7728    4.2122 H         1 UNK         0.0000 
   1673 H(2)       18.2128   32.2236    4.1963 H         1 UNK         0.0000 
   1674 H(3)       22.0724   32.2831    6.0762 H         1 UNK         0.0000 
   1675 H(4)       22.0851   29.8128    6.0906 H         1 UNK         0.0000 
   1676 H(5)       20.9423   34.1657    5.3025 H         1 UNK         0.0000 
   1677 H(6)       21.1782   27.8552    5.3956 H         1 UNK         0.0000 
   1678 H(7)       19.6240   25.4162    4.3514 H         1 UNK         0.0000 
   1679 H(8)       20.6991   25.7811    5.6446 H         1 UNK         0.0000 
   1680 H(9)       19.0218   25.3616    5.9254 H         1 UNK         0.0000 
   1681 O(1)       17.3258   41.9987    6.2473 O.3       1 UNK         0.0000 
   1682 O(2)       15.3280   40.7586   12.2913 O.2       1 UNK         0.0000 
   1683 N(1)       17.5091   40.7080   11.6604 N.am      1 UNK         0.0000 
   1684 C(1)       17.4096   41.0669   10.2975 C.ar      1 UNK         0.0000 
   1685 C(2)       16.3275   41.7528    9.7463 C.ar      1 UNK         0.0000 
   1686 C(3)       16.3205   42.0615    8.3892 C.ar      1 UNK         0.0000 
   1687 C(4)       17.3905   41.6989    7.5752 C.ar      1 UNK         0.0000 
   1688 C(5)       18.4861   41.0405    8.1323 C.ar      1 UNK         0.0000 
   1689 C(6)       18.4914   40.7276    9.4841 C.ar      1 UNK         0.0000 
   1690 C(7)       16.5183   40.5551   12.5539 C.2       1 UNK         0.0000 
   1691 C(8)       16.9592   40.1225   13.9266 C.3       1 UNK         0.0000 
   1692 H(1)       15.4870   42.0384   10.3666 H         1 UNK         0.0000 
   1693 H(2)       15.4696   42.5914    7.9789 H         1 UNK         0.0000 
   1694 H(3)       19.3293   40.7704    7.5086 H         1 UNK         0.0000 
   1695 H(4)       19.3420   40.2146    9.9156 H         1 UNK         0.0000 
   1696 H(5)       18.1992   41.9382    5.8415 H         1 UNK         0.0000 
   1697 H(6)       18.4351   40.4632   11.9779 H         1 UNK         0.0000 
   1698 H(7)       16.8809   40.9470   14.5866 H         1 UNK         0.0000 
   1699 H(8)       17.9560   39.7654   13.9469 H         1 UNK         0.0000 
   1700 H(9)       16.2787   39.3994   14.2946 H         1 UNK         0.0000 
   1701 O(1)       21.6793   30.6772    9.4321 O.3       1 UNK         0.0000 
   1702 O(2)       23.6771   36.8460    9.5479 O.2       1 UNK         0.0000 
   1703 N(1)       21.4959   36.2416    9.3602 N.am      1 UNK         0.0000 
   1704 C(1)       21.5954   34.8331    9.4114 C.ar      1 UNK         0.0000 
   1705 C(2)       22.6775   34.1449    9.9597 C.ar      1 UNK         0.0000 
   1706 C(3)       22.6846   32.7531    9.9633 C.ar      1 UNK         0.0000 
   1707 C(4)       21.6145   32.0385    9.4309 C.ar      1 UNK         0.0000 
   1708 C(5)       20.5189   32.7264    8.9107 C.ar      1 UNK         0.0000 
   1709 C(6)       20.5136   34.1140    8.9020 C.ar      1 UNK         0.0000 
   1710 C(7)       22.4867   37.1469    9.4070 C.2       1 UNK         0.0000 
   1711 C(8)       22.0459   38.5810    9.2860 C.3       1 UNK         0.0000 
   1712 H(1)       23.5181   34.6875   10.3744 H         1 UNK         0.0000 
   1713 H(2)       23.5354   32.2366   10.3903 H         1 UNK         0.0000 
   1714 H(3)       19.6758   32.1772    8.5104 H         1 UNK         0.0000 
   1715 H(4)       19.6630   34.6475    8.4961 H         1 UNK         0.0000 
   1716 H(5)       20.8058   30.2946    9.2841 H         1 UNK         0.0000 
   1717 H(6)       20.5700   36.6050    9.1910 H         1 UNK         0.0000 
   1718 H(7)       22.1241   39.0441   10.2352 H         1 UNK         0.0000 
   1719 H(8)       21.0491   38.6792    8.9420 H         1 UNK         0.0000 
   1720 H(9)       22.7263   39.0987    8.6612 H         1 UNK         0.0000 
   1721 O(1)       11.8592   42.8749   15.5017 O.3       1 UNK         0.0000 
   1722 O(2)       13.8570   44.1150    9.4577 O.2       1 UNK         0.0000 
   1723 N(1)       11.6758   44.1656   10.0886 N.am      1 UNK         0.0000 
   1724 C(1)       11.7753   43.8067   11.4515 C.ar      1 UNK         0.0000 
   1725 C(2)       12.8574   43.1208   12.0027 C.ar      1 UNK         0.0000 
   1726 C(3)       12.8645   42.8120   13.3599 C.ar      1 UNK         0.0000 
   1727 C(4)       11.7944   43.1747   14.1738 C.ar      1 UNK         0.0000 
   1728 C(5)       10.6988   43.8331   13.6167 C.ar      1 UNK         0.0000 
   1729 C(6)       10.6935   44.1460   12.2649 C.ar      1 UNK         0.0000 
   1730 C(7)       12.6666   44.3184    9.1951 C.2       1 UNK         0.0000 
   1731 C(8)       12.2257   44.7511    7.8224 C.3       1 UNK         0.0000 
   1732 H(1)       13.6980   42.8352   11.3824 H         1 UNK         0.0000 
   1733 H(2)       13.7153   42.2821   13.7701 H         1 UNK         0.0000 
   1734 H(3)        9.8557   44.1032   14.2404 H         1 UNK         0.0000 
   1735 H(4)        9.8429   44.6590   11.8334 H         1 UNK         0.0000 
   1736 H(5)       10.9857   42.9354   15.9075 H         1 UNK         0.0000 
   1737 H(6)       10.7499   44.4103    9.7711 H         1 UNK         0.0000 
   1738 H(7)       12.3040   43.9266    7.1624 H         1 UNK         0.0000 
   1739 H(8)       11.2290   45.1082    7.8021 H         1 UNK         0.0000 
   1740 H(9)       12.9062   45.4742    7.4544 H         1 UNK         0.0000 
   1741 O(1)       12.9919   39.5141   12.3169 O.3       1 UNK         0.0000 
   1742 O(2)       10.9941   33.3453   12.2011 O.2       1 UNK         0.0000 
   1743 N(1)       13.1752   33.9497   12.3888 N.am      1 UNK         0.0000 
   1744 C(1)       13.0757   35.3581   12.3376 C.ar      1 UNK         0.0000 
   1745 C(2)       11.9936   36.0463   11.7893 C.ar      1 UNK         0.0000 
   1746 C(3)       11.9866   37.4381   11.7858 C.ar      1 UNK         0.0000 
   1747 C(4)       13.0566   38.1527   12.3181 C.ar      1 UNK         0.0000 
   1748 C(5)       14.1522   37.4648   12.8383 C.ar      1 UNK         0.0000 
   1749 C(6)       14.1575   36.0773   12.8470 C.ar      1 UNK         0.0000 
   1750 C(7)       12.1844   33.0444   12.3420 C.2       1 UNK         0.0000 
   1751 C(8)       12.6253   31.6102   12.4630 C.3       1 UNK         0.0000 
   1752 H(1)       11.1531   35.5038   11.3746 H         1 UNK         0.0000 
   1753 H(2)       11.1358   37.9546   11.3587 H         1 UNK         0.0000 
   1754 H(3)       14.9954   38.0141   13.2386 H         1 UNK         0.0000 
   1755 H(4)       15.0081   35.5438   13.2530 H         1 UNK         0.0000 
   1756 H(5)       13.8653   39.8967   12.4649 H         1 UNK         0.0000 
   1757 H(6)       14.1012   33.5862   12.5580 H         1 UNK         0.0000 
   1758 H(7)       12.5470   31.1471   11.5138 H         1 UNK         0.0000 
   1759 H(8)       13.6221   31.5121   12.8070 H         1 UNK         0.0000 
   1760 H(9)       11.9448   31.0926   13.0878 H         1 UNK         0.0000 
   1761 O(1)       17.3258   47.7297   13.4097 O.3       1 UNK         0.0000 
   1762 O(2)       15.3280   46.4896   19.4537 O.2       1 UNK         0.0000 
   1763 N(1)       17.5091   46.4389   18.8228 N.am      1 UNK         0.0000 
   1764 C(1)       17.4096   46.7979   17.4599 C.ar      1 UNK         0.0000 
   1765 C(2)       16.3275   47.4837   16.9087 C.ar      1 UNK         0.0000 
   1766 C(3)       16.3205   47.7925   15.5516 C.ar      1 UNK         0.0000 
   1767 C(4)       17.3905   47.4298   14.7376 C.ar      1 UNK         0.0000 
   1768 C(5)       18.4861   46.7715   15.2947 C.ar      1 UNK         0.0000 
   1769 C(6)       18.4914   46.4586   16.6465 C.ar      1 UNK         0.0000 
   1770 C(7)       16.5183   46.2861   19.7163 C.2       1 UNK         0.0000 
   1771 C(8)       16.9592   45.8535   21.0890 C.3       1 UNK         0.0000 
   1772 H(1)       15.4870   47.7694   17.5290 H         1 UNK         0.0000 
   1773 H(2)       15.4696   48.3224   15.1413 H         1 UNK         0.0000 
   1774 H(3)       19.3293   46.5014   14.6710 H         1 UNK         0.0000 
   1775 H(4)       19.3420   45.9455   17.0780 H         1 UNK         0.0000 
   1776 H(5)       18.1992   47.6691   13.0039 H         1 UNK         0.0000 
   1777 H(6)       18.4351   46.1942   19.1403 H         1 UNK         0.0000 
   1778 H(7)       16.8809   46.6779   21.7490 H         1 UNK         0.0000 
   1779 H(8)       17.9560   45.4963   21.1093 H         1 UNK         0.0000 
   1780 H(9)       16.2787   45.1304   21.4570 H         1 UNK         0.0000 
   1781 O(1)       21.6793   36.4082   16.5945 O.3       1 UNK         0.0000 
   1782 O(2)       23.6771   42.5769   16.7103 O.2       1 UNK         0.0000 
   1783 N(1)       21.4959   41.9725   16.5226 N.am      1 UNK         0.0000 
   1784 C(1)       21.5954   40.5641   16.5738 C.ar      1 UNK         0.0000 
   1785 C(2)       22.6775   39.8759   17.1221 C.ar      1 UNK         0.0000 
   1786 C(3)       22.6846   38.4841   17.1257 C.ar      1 UNK         0.0000 
   1787 C(4)       21.6145   37.7695   16.5933 C.ar      1 UNK         0.0000 
   1788 C(5)       20.5189   38.4574   16.0731 C.ar      1 UNK         0.0000 
   1789 C(6)       20.5136   39.8449   16.0644 C.ar      1 UNK         0.0000 
   1790 C(7)       22.4867   42.8779   16.5694 C.2       1 UNK         0.0000 
   1791 C(8)       22.0459   44.3120   16.4484 C.3       1 UNK         0.0000 
   1792 H(1)       23.5181   40.4184   17.5368 H         1 UNK         0.0000 
   1793 H(2)       23.5354   37.9676   17.5527 H         1 UNK         0.0000 
   1794 H(3)       19.6758   37.9081   15.6728 H         1 UNK         0.0000 
   1795 H(4)       19.6630   40.3784   15.6585 H         1 UNK         0.0000 
   1796 H(5)       20.8058   36.0256   16.4465 H         1 UNK         0.0000 
   1797 H(6)       20.5700   42.3360   16.3534 H         1 UNK         0.0000 
   1798 H(7)       22.1241   44.7751   17.3976 H         1 UNK         0.0000 
   1799 H(8)       21.0491   44.4101   16.1044 H         1 UNK         0.0000 
   1800 H(9)       22.7263   44.8296   15.8236 H         1 UNK         0.0000 
   1801 O(1)       17.3454   33.9235   22.6641 O.3       1 UNK         0.0000 
   1802 O(2)       19.3432   35.1636   16.6201 O.2       1 UNK         0.0000 
   1803 N(1)       17.1620   35.2142   17.2510 N.am      1 UNK         0.0000 
   1804 C(1)       17.2615   34.8553   18.6139 C.ar      1 UNK         0.0000 
   1805 C(2)       18.3436   34.1694   19.1651 C.ar      1 UNK         0.0000 
   1806 C(3)       18.3507   33.8607   20.5223 C.ar      1 UNK         0.0000 
   1807 C(4)       17.2807   34.2233   21.3362 C.ar      1 UNK         0.0000 
   1808 C(5)       16.1850   34.8817   20.7791 C.ar      1 UNK         0.0000 
   1809 C(6)       16.1797   35.1946   19.4273 C.ar      1 UNK         0.0000 
   1810 C(7)       18.1528   35.3671   16.3575 C.2       1 UNK         0.0000 
   1811 C(8)       17.7120   35.7997   14.9848 C.3       1 UNK         0.0000 
   1812 H(1)       19.1842   33.8838   18.5448 H         1 UNK         0.0000 
   1813 H(2)       19.2015   33.3308   20.9325 H         1 UNK         0.0000 
   1814 H(3)       15.3419   35.1518   21.4028 H         1 UNK         0.0000 
   1815 H(4)       15.3291   35.7077   18.9958 H         1 UNK         0.0000 
   1816 H(5)       16.4719   33.9840   23.0699 H         1 UNK         0.0000 
   1817 H(6)       16.2361   35.4590   16.9335 H         1 UNK         0.0000 
   1818 H(7)       17.7902   34.9753   14.3248 H         1 UNK         0.0000 
   1819 H(8)       16.7152   36.1568   14.9645 H         1 UNK         0.0000 
   1820 H(9)       18.3924   36.5228   14.6168 H         1 UNK         0.0000 
   1821 O(1)       20.0689   45.2450   19.4793 O.3       1 UNK         0.0000 
   1822 O(2)       18.0711   39.0762   19.3635 O.2       1 UNK         0.0000 
   1823 N(1)       20.2522   39.6806   19.5512 N.am      1 UNK         0.0000 
   1824 C(1)       20.1527   41.0891   19.5000 C.ar      1 UNK         0.0000 
   1825 C(2)       19.0706   41.7773   18.9517 C.ar      1 UNK         0.0000 
   1826 C(3)       19.0636   43.1691   18.9482 C.ar      1 UNK         0.0000 
   1827 C(4)       20.1336   43.8837   19.4805 C.ar      1 UNK         0.0000 
   1828 C(5)       21.2292   43.1958   20.0007 C.ar      1 UNK         0.0000 
   1829 C(6)       21.2345   41.8082   20.0094 C.ar      1 UNK         0.0000 
   1830 C(7)       19.2614   38.7753   19.5044 C.2       1 UNK         0.0000 
   1831 C(8)       19.7023   37.3412   19.6254 C.3       1 UNK         0.0000 
   1832 H(1)       18.2301   41.2348   18.5370 H         1 UNK         0.0000 
   1833 H(2)       18.2128   43.6856   18.5211 H         1 UNK         0.0000 
   1834 H(3)       22.0724   43.7450   20.4010 H         1 UNK         0.0000 
   1835 H(4)       22.0851   41.2747   20.4154 H         1 UNK         0.0000 
   1836 H(5)       20.9423   45.6276   19.6273 H         1 UNK         0.0000 
   1837 H(6)       21.1782   39.3172   19.7204 H         1 UNK         0.0000 
   1838 H(7)       19.6240   36.8781   18.6762 H         1 UNK         0.0000 
   1839 H(8)       20.6991   37.2431   19.9694 H         1 UNK         0.0000 
   1840 H(9)       19.0218   36.8235   20.2502 H         1 UNK         0.0000 
   1841 O(1)       15.7350   38.7783   20.5721 O.3       1 UNK         0.0000 
   1842 O(2)       13.7372   37.5382   26.6161 O.2       1 UNK         0.0000 
   1843 N(1)       15.9183   37.4876   25.9852 N.am      1 UNK         0.0000 
   1844 C(1)       15.8189   37.8465   24.6223 C.ar      1 UNK         0.0000 
   1845 C(2)       14.7367   38.5324   24.0711 C.ar      1 UNK         0.0000 
   1846 C(3)       14.7297   38.8411   22.7140 C.ar      1 UNK         0.0000 
   1847 C(4)       15.7997   38.4785   21.9000 C.ar      1 UNK         0.0000 
   1848 C(5)       16.8953   37.8201   22.4571 C.ar      1 UNK         0.0000 
   1849 C(6)       16.9006   37.5072   23.8089 C.ar      1 UNK         0.0000 
   1850 C(7)       14.9275   37.3347   26.8787 C.2       1 UNK         0.0000 
   1851 C(8)       15.3684   36.9021   28.2514 C.3       1 UNK         0.0000 
   1852 H(1)       13.8962   38.8180   24.6914 H         1 UNK         0.0000 
   1853 H(2)       13.8789   39.3710   22.3037 H         1 UNK         0.0000 
   1854 H(3)       17.7385   37.5500   21.8334 H         1 UNK         0.0000 
   1855 H(4)       17.7512   36.9942   24.2404 H         1 UNK         0.0000 
   1856 H(5)       16.6084   38.7178   20.1663 H         1 UNK         0.0000 
   1857 H(6)       16.8443   37.2428   26.3027 H         1 UNK         0.0000 
   1858 H(7)       15.2901   37.7266   28.9114 H         1 UNK         0.0000 
   1859 H(8)       16.3652   36.5450   28.2717 H         1 UNK         0.0000 
   1860 H(9)       14.6879   36.1790   28.6194 H         1 UNK         0.0000 
   1861 O(1)       14.6023   42.1391   23.7569 O.3       1 UNK         0.0000 
   1862 O(2)       16.6001   48.3079   23.8727 O.2       1 UNK         0.0000 
   1863 N(1)       14.4189   47.7035   23.6850 N.am      1 UNK         0.0000 
   1864 C(1)       14.5184   46.2951   23.7362 C.ar      1 UNK         0.0000 
   1865 C(2)       15.6005   45.6068   24.2845 C.ar      1 UNK         0.0000 
   1866 C(3)       15.6076   44.2150   24.2881 C.ar      1 UNK         0.0000 
   1867 C(4)       14.5375   43.5004   23.7557 C.ar      1 UNK         0.0000 
   1868 C(5)       13.4419   44.1884   23.2355 C.ar      1 UNK         0.0000 
   1869 C(6)       13.4366   45.5759   23.2268 C.ar      1 UNK         0.0000 
   1870 C(7)       15.4097   48.6088   23.7318 C.2       1 UNK         0.0000 
   1871 C(8)       14.9688   50.0429   23.6108 C.3       1 UNK         0.0000 
   1872 H(1)       16.4411   46.1494   24.6992 H         1 UNK         0.0000 
   1873 H(2)       16.4584   43.6986   24.7151 H         1 UNK         0.0000 
   1874 H(3)       12.5988   43.6391   22.8352 H         1 UNK         0.0000 
   1875 H(4)       12.5860   46.1094   22.8209 H         1 UNK         0.0000 
   1876 H(5)       13.7288   41.7565   23.6089 H         1 UNK         0.0000 
   1877 H(6)       13.4930   48.0670   23.5158 H         1 UNK         0.0000 
   1878 H(7)       15.0471   50.5060   24.5600 H         1 UNK         0.0000 
   1879 H(8)       13.9721   50.1411   23.2668 H         1 UNK         0.0000 
   1880 H(9)       15.6493   50.5606   22.9860 H         1 UNK         0.0000 
   1881 O(1)       18.9362   37.1439    8.3393 O.3       1 UNK         0.0000 
   1882 O(2)       20.9340   38.3840    2.2953 O.2       1 UNK         0.0000 
   1883 N(1)       18.7528   38.4346    2.9262 N.am      1 UNK         0.0000 
   1884 C(1)       18.8523   38.0757    4.2891 C.ar      1 UNK         0.0000 
   1885 C(2)       19.9344   37.3898    4.8403 C.ar      1 UNK         0.0000 
   1886 C(3)       19.9415   37.0811    6.1975 C.ar      1 UNK         0.0000 
   1887 C(4)       18.8714   37.4437    7.0114 C.ar      1 UNK         0.0000 
   1888 C(5)       17.7758   38.1021    6.4543 C.ar      1 UNK         0.0000 
   1889 C(6)       17.7705   38.4150    5.1025 C.ar      1 UNK         0.0000 
   1890 C(7)       19.7436   38.5875    2.0327 C.2       1 UNK         0.0000 
   1891 C(8)       19.3027   39.0201    0.6600 C.3       1 UNK         0.0000 
   1892 H(1)       20.7750   37.1042    4.2200 H         1 UNK         0.0000 
   1893 H(2)       20.7923   36.5512    6.6077 H         1 UNK         0.0000 
   1894 H(3)       16.9327   38.3722    7.0780 H         1 UNK         0.0000 
   1895 H(4)       16.9199   38.9281    4.6710 H         1 UNK         0.0000 
   1896 H(5)       18.0627   37.2044    8.7451 H         1 UNK         0.0000 
   1897 H(6)       17.8269   38.6794    2.6087 H         1 UNK         0.0000 
   1898 H(7)       19.3810   38.1956    0.0000 H         1 UNK         0.0000 
   1899 H(8)       18.3060   39.3772    0.6397 H         1 UNK         0.0000 
   1900 H(9)       19.9832   39.7432    0.2920 H         1 UNK         0.0000 
   1901 O(1)       21.6597   48.4654    5.1545 O.3       1 UNK         0.0000 
   1902 O(2)       19.6618   42.2966    5.0387 O.2       1 UNK         0.0000 
   1903 N(1)       21.8430   42.9010    5.2264 N.am      1 UNK         0.0000 
   1904 C(1)       21.7435   44.3095    5.1752 C.ar      1 UNK         0.0000 
   1905 C(2)       20.6614   44.9977    4.6269 C.ar      1 UNK         0.0000 
   1906 C(3)       20.6543   46.3895    4.6234 C.ar      1 UNK         0.0000 
   1907 C(4)       21.7244   47.1041    5.1557 C.ar      1 UNK         0.0000 
   1908 C(5)       22.8200   46.4162    5.6759 C.ar      1 UNK         0.0000 
   1909 C(6)       22.8253   45.0286    5.6846 C.ar      1 UNK         0.0000 
   1910 C(7)       20.8522   41.9957    5.1796 C.2       1 UNK         0.0000 
   1911 C(8)       21.2931   40.5616    5.3006 C.3       1 UNK         0.0000 
   1912 H(1)       19.8208   44.4552    4.2122 H         1 UNK         0.0000 
   1913 H(2)       19.8035   46.9060    4.1963 H         1 UNK         0.0000 
   1914 H(3)       23.6631   46.9654    6.0762 H         1 UNK         0.0000 
   1915 H(4)       23.6759   44.4951    6.0906 H         1 UNK         0.0000 
   1916 H(5)       22.5331   48.8480    5.3025 H         1 UNK         0.0000 
   1917 H(6)       22.7690   42.5376    5.3956 H         1 UNK         0.0000 
   1918 H(7)       21.2148   40.0985    4.3514 H         1 UNK         0.0000 
   1919 H(8)       22.2898   40.4635    5.6446 H         1 UNK         0.0000 
   1920 H(9)       20.6126   40.0439    5.9254 H         1 UNK         0.0000 
   1921 O(1)       18.9166   56.6810    6.2473 O.3       1 UNK         0.0000 
   1922 O(2)       16.9187   55.4409   12.2913 O.2       1 UNK         0.0000 
   1923 N(1)       19.0999   55.3903   11.6604 N.am      1 UNK         0.0000 
   1924 C(1)       19.0004   55.7492   10.2975 C.ar      1 UNK         0.0000 
   1925 C(2)       17.9183   56.4351    9.7463 C.ar      1 UNK         0.0000 
   1926 C(3)       17.9112   56.7439    8.3892 C.ar      1 UNK         0.0000 
   1927 C(4)       18.9813   56.3812    7.5752 C.ar      1 UNK         0.0000 
   1928 C(5)       20.0769   55.7228    8.1323 C.ar      1 UNK         0.0000 
   1929 C(6)       20.0822   55.4100    9.4841 C.ar      1 UNK         0.0000 
   1930 C(7)       18.1091   55.2375   12.5539 C.2       1 UNK         0.0000 
   1931 C(8)       18.5500   54.8048   13.9266 C.3       1 UNK         0.0000 
   1932 H(1)       17.0777   56.7208   10.3666 H         1 UNK         0.0000 
   1933 H(2)       17.0604   57.2738    7.9789 H         1 UNK         0.0000 
   1934 H(3)       20.9200   55.4527    7.5086 H         1 UNK         0.0000 
   1935 H(4)       20.9328   54.8969    9.9156 H         1 UNK         0.0000 
   1936 H(5)       19.7900   56.6205    5.8415 H         1 UNK         0.0000 
   1937 H(6)       20.0258   55.1456   11.9779 H         1 UNK         0.0000 
   1938 H(7)       18.4717   55.6293   14.5866 H         1 UNK         0.0000 
   1939 H(8)       19.5467   54.4477   13.9469 H         1 UNK         0.0000 
   1940 H(9)       17.8695   54.0817   14.2946 H         1 UNK         0.0000 
   1941 O(1)       23.2700   45.3595    9.4321 O.3       1 UNK         0.0000 
   1942 O(2)       25.2679   51.5283    9.5479 O.2       1 UNK         0.0000 
   1943 N(1)       23.0867   50.9239    9.3602 N.am      1 UNK         0.0000 
   1944 C(1)       23.1862   49.5155    9.4114 C.ar      1 UNK         0.0000 
   1945 C(2)       24.2683   48.8272    9.9597 C.ar      1 UNK         0.0000 
   1946 C(3)       24.2754   47.4354    9.9633 C.ar      1 UNK         0.0000 
   1947 C(4)       23.2053   46.7208    9.4309 C.ar      1 UNK         0.0000 
   1948 C(5)       22.1097   47.4088    8.9107 C.ar      1 UNK         0.0000 
   1949 C(6)       22.1044   48.7963    8.9020 C.ar      1 UNK         0.0000 
   1950 C(7)       24.0775   51.8292    9.4070 C.2       1 UNK         0.0000 
   1951 C(8)       23.6366   53.2633    9.2860 C.3       1 UNK         0.0000 
   1952 H(1)       25.1089   49.3698   10.3744 H         1 UNK         0.0000 
   1953 H(2)       25.1262   46.9190   10.3903 H         1 UNK         0.0000 
   1954 H(3)       21.2666   46.8595    8.5104 H         1 UNK         0.0000 
   1955 H(4)       21.2538   49.3298    8.4961 H         1 UNK         0.0000 
   1956 H(5)       22.3966   44.9769    9.2841 H         1 UNK         0.0000 
   1957 H(6)       22.1607   51.2874    9.1910 H         1 UNK         0.0000 
   1958 H(7)       23.7149   53.7264   10.2352 H         1 UNK         0.0000 
   1959 H(8)       22.6399   53.3615    8.9420 H         1 UNK         0.0000 
   1960 H(9)       24.3171   53.7810    8.6612 H         1 UNK         0.0000 
   1961 O(1)       13.4499   57.5572   15.5017 O.3       1 UNK         0.0000 
   1962 O(2)       15.4477   58.7973    9.4577 O.2       1 UNK         0.0000 
   1963 N(1)       13.2666   58.8479   10.0886 N.am      1 UNK         0.0000 
   1964 C(1)       13.3661   58.4890   11.4515 C.ar      1 UNK         0.0000 
   1965 C(2)       14.4482   57.8031   12.0027 C.ar      1 UNK         0.0000 
   1966 C(3)       14.4552   57.4944   13.3599 C.ar      1 UNK         0.0000 
   1967 C(4)       13.3852   57.8570   14.1738 C.ar      1 UNK         0.0000 
   1968 C(5)       12.2896   58.5154   13.6167 C.ar      1 UNK         0.0000 
   1969 C(6)       12.2843   58.8283   12.2649 C.ar      1 UNK         0.0000 
   1970 C(7)       14.2574   59.0008    9.1951 C.2       1 UNK         0.0000 
   1971 C(8)       13.8165   59.4334    7.8224 C.3       1 UNK         0.0000 
   1972 H(1)       15.2888   57.5175   11.3824 H         1 UNK         0.0000 
   1973 H(2)       15.3061   56.9645   13.7701 H         1 UNK         0.0000 
   1974 H(3)       11.4464   58.7855   14.2404 H         1 UNK         0.0000 
   1975 H(4)       11.4337   59.3414   11.8334 H         1 UNK         0.0000 
   1976 H(5)       12.5765   57.6177   15.9075 H         1 UNK         0.0000 
   1977 H(6)       12.3406   59.0927    9.7711 H         1 UNK         0.0000 
   1978 H(7)       13.8948   58.6089    7.1624 H         1 UNK         0.0000 
   1979 H(8)       12.8197   59.7905    7.8021 H         1 UNK         0.0000 
   1980 H(9)       14.4970   60.1565    7.4544 H         1 UNK         0.0000 
   1981 O(1)       14.5827   54.1964   12.3169 O.3       1 UNK         0.0000 
   1982 O(2)       12.5848   48.0276   12.2011 O.2       1 UNK         0.0000 
   1983 N(1)       14.7660   48.6320   12.3888 N.am      1 UNK         0.0000 
   1984 C(1)       14.6665   50.0404   12.3376 C.ar      1 UNK         0.0000 
   1985 C(2)       13.5844   50.7287   11.7893 C.ar      1 UNK         0.0000 
   1986 C(3)       13.5773   52.1205   11.7858 C.ar      1 UNK         0.0000 
   1987 C(4)       14.6474   52.8351   12.3181 C.ar      1 UNK         0.0000 
   1988 C(5)       15.7430   52.1472   12.8383 C.ar      1 UNK         0.0000 
   1989 C(6)       15.7483   50.7596   12.8470 C.ar      1 UNK         0.0000 
   1990 C(7)       13.7752   47.7267   12.3420 C.2       1 UNK         0.0000 
   1991 C(8)       14.2161   46.2926   12.4630 C.3       1 UNK         0.0000 
   1992 H(1)       12.7438   50.1861   11.3746 H         1 UNK         0.0000 
   1993 H(2)       12.7265   52.6369   11.3587 H         1 UNK         0.0000 
   1994 H(3)       16.5861   52.6964   13.2386 H         1 UNK         0.0000 
   1995 H(4)       16.5989   50.2261   13.2530 H         1 UNK         0.0000 
   1996 H(5)       15.4561   54.5790   12.4649 H         1 UNK         0.0000 
   1997 H(6)       15.6920   48.2685   12.5580 H         1 UNK         0.0000 
   1998 H(7)       14.1378   45.8295   11.5138 H         1 UNK         0.0000 
   1999 H(8)       15.2128   46.1944   12.8070 H         1 UNK         0.0000 
   2000 H(9)       13.5356   45.7749   13.0878 H         1 UNK         0.0000 
   2001 O(1)       18.9166   62.4120   13.4097 O.3       1 UNK         0.0000 
   2002 O(2)       16.9187   61.1719   19.4537 O.2       1 UNK         0.0000 
   2003 N(1)       19.0999   61.1213   18.8228 N.am      1 UNK         0.0000 
   2004 C(1)       19.0004   61.4802   17.4599 C.ar      1 UNK         0.0000 
   2005 C(2)       17.9183   62.1661   16.9087 C.ar      1 UNK         0.0000 
   2006 C(3)       17.9112   62.4748   15.5516 C.ar      1 UNK         0.0000 
   2007 C(4)       18.9813   62.1122   14.7376 C.ar      1 UNK         0.0000 
   2008 C(5)       20.0769   61.4538   15.2947 C.ar      1 UNK         0.0000 
   2009 C(6)       20.0822   61.1409   16.6465 C.ar      1 UNK         0.0000 
   2010 C(7)       18.1091   60.9684   19.7163 C.2       1 UNK         0.0000 
   2011 C(8)       18.5500   60.5358   21.0890 C.3       1 UNK         0.0000 
   2012 H(1)       17.0777   62.4517   17.5290 H         1 UNK         0.0000 
   2013 H(2)       17.0604   63.0047   15.1413 H         1 UNK         0.0000 
   2014 H(3)       20.9200   61.1837   14.6710 H         1 UNK         0.0000 
   2015 H(4)       20.9328   60.6279   17.0780 H         1 UNK         0.0000 
   2016 H(5)       19.7900   62.3515   13.0039 H         1 UNK         0.0000 
   2017 H(6)       20.0258   60.8765   19.1403 H         1 UNK         0.0000 
   2018 H(7)       18.4717   61.3603   21.7490 H         1 UNK         0.0000 
   2019 H(8)       19.5467   60.1787   21.1093 H         1 UNK         0.0000 
   2020 H(9)       17.8695   59.8127   21.4570 H         1 UNK         0.0000 
   2021 O(1)       23.2700   51.0905   16.5945 O.3       1 UNK         0.0000 
   2022 O(2)       25.2679   57.2593   16.7103 O.2       1 UNK         0.0000 
   2023 N(1)       23.0867   56.6549   16.5226 N.am      1 UNK         0.0000 
   2024 C(1)       23.1862   55.2464   16.5738 C.ar      1 UNK         0.0000 
   2025 C(2)       24.2683   54.5582   17.1221 C.ar      1 UNK         0.0000 
   2026 C(3)       24.2754   53.1664   17.1257 C.ar      1 UNK         0.0000 
   2027 C(4)       23.2053   52.4518   16.5933 C.ar      1 UNK         0.0000 
   2028 C(5)       22.1097   53.1397   16.0731 C.ar      1 UNK         0.0000 
   2029 C(6)       22.1044   54.5273   16.0644 C.ar      1 UNK         0.0000 
   2030 C(7)       24.0775   57.5602   16.5694 C.2       1 UNK         0.0000 
   2031 C(8)       23.6366   58.9943   16.4484 C.3       1 UNK         0.0000 
   2032 H(1)       25.1089   55.1008   17.5368 H         1 UNK         0.0000 
   2033 H(2)       25.1262   52.6499   17.5527 H         1 UNK         0.0000 
   2034 H(3)       21.2666   52.5905   15.6728 H         1 UNK         0.0000 
   2035 H(4)       21.2538   55.0608   15.6585 H         1 UNK         0.0000 
   2036 H(5)       22.3966   50.7079   16.4465 H         1 UNK         0.0000 
   2037 H(6)       22.1607   57.0183   16.3534 H         1 UNK         0.0000 
   2038 H(7)       23.7149   59.4574   17.3976 H         1 UNK         0.0000 
   2039 H(8)       22.6399   59.0924   16.1044 H         1 UNK         0.0000 
   2040 H(9)       24.3171   59.5120   15.8236 H         1 UNK         0.0000 
   2041 O(1)       18.9362   48.6059   22.6641 O.3       1 UNK         0.0000 
   2042 O(2)       20.9340   49.8459   16.6201 O.2       1 UNK         0.0000 
   2043 N(1)       18.7528   49.8966   17.2510 N.am      1 UNK         0.0000 
   2044 C(1)       18.8523   49.5377   18.6139 C.ar      1 UNK         0.0000 
   2045 C(2)       19.9344   48.8518   19.1651 C.ar      1 UNK         0.0000 
   2046 C(3)       19.9415   48.5430   20.5223 C.ar      1 UNK         0.0000 
   2047 C(4)       18.8714   48.9057   21.3362 C.ar      1 UNK         0.0000 
   2048 C(5)       17.7758   49.5641   20.7791 C.ar      1 UNK         0.0000 
   2049 C(6)       17.7705   49.8769   19.4273 C.ar      1 UNK         0.0000 
   2050 C(7)       19.7436   50.0494   16.3575 C.2       1 UNK         0.0000 
   2051 C(8)       19.3027   50.4820   14.9848 C.3       1 UNK         0.0000 
   2052 H(1)       20.7750   48.5661   18.5448 H         1 UNK         0.0000 
   2053 H(2)       20.7923   48.0131   20.9325 H         1 UNK         0.0000 
   2054 H(3)       16.9327   49.8341   21.4028 H         1 UNK         0.0000 
   2055 H(4)       16.9199   50.3900   18.9958 H         1 UNK         0.0000 
   2056 H(5)       18.0627   48.6664   23.0699 H         1 UNK         0.0000 
   2057 H(6)       17.8269   50.1413   16.9335 H         1 UNK         0.0000 
   2058 H(7)       19.3810   49.6576   14.3248 H         1 UNK         0.0000 
   2059 H(8)       18.3060   50.8392   14.9645 H         1 UNK         0.0000 
   2060 H(9)       19.9832   51.2051   14.6168 H         1 UNK         0.0000 
   2061 O(1)       21.6597   59.9274   19.4793 O.3       1 UNK         0.0000 
   2062 O(2)       19.6618   53.7586   19.3635 O.2       1 UNK         0.0000 
   2063 N(1)       21.8430   54.3630   19.5512 N.am      1 UNK         0.0000 
   2064 C(1)       21.7435   55.7714   19.5000 C.ar      1 UNK         0.0000 
   2065 C(2)       20.6614   56.4596   18.9517 C.ar      1 UNK         0.0000 
   2066 C(3)       20.6543   57.8514   18.9482 C.ar      1 UNK         0.0000 
   2067 C(4)       21.7244   58.5660   19.4805 C.ar      1 UNK         0.0000 
   2068 C(5)       22.8200   57.8781   20.0007 C.ar      1 UNK         0.0000 
   2069 C(6)       22.8253   56.4906   20.0094 C.ar      1 UNK         0.0000 
   2070 C(7)       20.8522   53.4577   19.5044 C.2       1 UNK         0.0000 
   2071 C(8)       21.2931   52.0235   19.6254 C.3       1 UNK         0.0000 
   2072 H(1)       19.8208   55.9171   18.5370 H         1 UNK         0.0000 
   2073 H(2)       19.8035   58.3679   18.5211 H         1 UNK         0.0000 
   2074 H(3)       23.6631   58.4274   20.4010 H         1 UNK         0.0000 
   2075 H(4)       23.6759   55.9571   20.4154 H         1 UNK         0.0000 
   2076 H(5)       22.5331   60.3100   19.6273 H         1 UNK         0.0000 
   2077 H(6)       22.7690   53.9995   19.7204 H         1 UNK         0.0000 
   2078 H(7)       21.2148   51.5604   18.6762 H         1 UNK         0.0000 
   2079 H(8)       22.2898   51.9254   19.9694 H         1 UNK         0.0000 
   2080 H(9)       20.6126   51.5059   20.2502 H         1 UNK         0.0000 
   2081 O(1)       17.3258   53.4606   20.5721 O.3       1 UNK         0.0000 
   2082 O(2)       15.3280   52.2205   26.6161 O.2       1 UNK         0.0000 
   2083 N(1)       17.5091   52.1699   25.9852 N.am      1 UNK         0.0000 
   2084 C(1)       17.4096   52.5288   24.6223 C.ar      1 UNK         0.0000 
   2085 C(2)       16.3275   53.2147   24.0711 C.ar      1 UNK         0.0000 
   2086 C(3)       16.3205   53.5235   22.7140 C.ar      1 UNK         0.0000 
   2087 C(4)       17.3905   53.1608   21.9000 C.ar      1 UNK         0.0000 
   2088 C(5)       18.4861   52.5024   22.4571 C.ar      1 UNK         0.0000 
   2089 C(6)       18.4914   52.1896   23.8089 C.ar      1 UNK         0.0000 
   2090 C(7)       16.5183   52.0171   26.8787 C.2       1 UNK         0.0000 
   2091 C(8)       16.9592   51.5844   28.2514 C.3       1 UNK         0.0000 
   2092 H(1)       15.4870   53.5004   24.6914 H         1 UNK         0.0000 
   2093 H(2)       15.4696   54.0534   22.3037 H         1 UNK         0.0000 
   2094 H(3)       19.3293   52.2323   21.8334 H         1 UNK         0.0000 
   2095 H(4)       19.3420   51.6765   24.2404 H         1 UNK         0.0000 
   2096 H(5)       18.1992   53.4001   20.1663 H         1 UNK         0.0000 
   2097 H(6)       18.4351   51.9252   26.3027 H         1 UNK         0.0000 
   2098 H(7)       16.8809   52.4089   28.9114 H         1 UNK         0.0000 
   2099 H(8)       17.9560   51.2273   28.2717 H         1 UNK         0.0000 
   2100 H(9)       16.2787   50.8613   28.6194 H         1 UNK         0.0000 
   2101 O(1)       16.1930   56.8215   23.7569 O.3       1 UNK         0.0000 
   2102 O(2)       18.1909   62.9902   23.8727 O.2       1 UNK         0.0000 
   2103 N(1)       16.0097   62.3858   23.6850 N.am      1 UNK         0.0000 
   2104 C(1)       16.1092   60.9774   23.7362 C.ar      1 UNK         0.0000 
   2105 C(2)       17.1913   60.2892   24.2845 C.ar      1 UNK         0.0000 
   2106 C(3)       17.1984   58.8974   24.2881 C.ar      1 UNK         0.0000 
   2107 C(4)       16.1283   58.1828   23.7557 C.ar      1 UNK         0.0000 
   2108 C(5)       15.0327   58.8707   23.2355 C.ar      1 UNK         0.0000 
   2109 C(6)       15.0274   60.2582   23.2268 C.ar      1 UNK         0.0000 
   2110 C(7)       17.0005   63.2911   23.7318 C.2       1 UNK         0.0000 
   2111 C(8)       16.5596   64.7253   23.6108 C.3       1 UNK         0.0000 
   2112 H(1)       18.0319   60.8317   24.6992 H         1 UNK         0.0000 
   2113 H(2)       18.0492   58.3809   24.7151 H         1 UNK         0.0000 
   2114 H(3)       14.1896   58.3214   22.8352 H         1 UNK         0.0000 
   2115 H(4)       14.1768   60.7917   22.8209 H         1 UNK         0.0000 
   2116 H(5)       15.3196   56.4389   23.6089 H         1 UNK         0.0000 
   2117 H(6)       15.0837   62.7493   23.5158 H         1 UNK         0.0000 
   2118 H(7)       16.6379   65.1884   24.5600 H         1 UNK         0.0000 
   2119 H(8)       15.5629   64.8234   23.2668 H         1 UNK         0.0000 
   2120 H(9)       17.2401   65.2429   22.9860 H         1 UNK         0.0000 
   2121 O(1)       20.5269   51.8263    8.3393 O.3       1 UNK         0.0000 
   2122 O(2)       22.5248   53.0663    2.2953 O.2       1 UNK         0.0000 
   2123 N(1)       20.3436   53.1170    2.9262 N.am      1 UNK         0.0000 
   2124 C(1)       20.4431   52.7581    4.2891 C.ar      1 UNK         0.0000 
   2125 C(2)       21.5252   52.0722    4.8403 C.ar      1 UNK         0.0000 
   2126 C(3)       21.5322   51.7634    6.1975 C.ar      1 UNK         0.0000 
   2127 C(4)       20.4622   52.1261    7.0114 C.ar      1 UNK         0.0000 
   2128 C(5)       19.3666   52.7845    6.4543 C.ar      1 UNK         0.0000 
   2129 C(6)       19.3613   53.0973    5.1025 C.ar      1 UNK         0.0000 
   2130 C(7)       21.3344   53.2698    2.0327 C.2       1 UNK         0.0000 
   2131 C(8)       20.8935   53.7024    0.6600 C.3       1 UNK         0.0000 
   2132 H(1)       22.3658   51.7865    4.2200 H         1 UNK         0.0000 
   2133 H(2)       22.3831   51.2335    6.6077 H         1 UNK         0.0000 
   2134 H(3)       18.5234   53.0545    7.0780 H         1 UNK         0.0000 
   2135 H(4)       18.5107   53.6104    4.6710 H         1 UNK         0.0000 
   2136 H(5)       19.6535   51.8868    8.7451 H         1 UNK         0.0000 
   2137 H(6)       19.4176   53.3617    2.6087 H         1 UNK         0.0000 
   2138 H(7)       20.9718   52.8780    0.0000 H         1 UNK         0.0000 
   2139 H(8)       19.8967   54.0596    0.6397 H         1 UNK         0.0000 
   2140 H(9)       21.5740   54.4255    0.2920 H         1 UNK         0.0000 
   2141 O(1)       23.2504   63.1478    5.1545 O.3       1 UNK         0.0000 
   2142 O(2)       21.2526   56.9790    5.0387 O.2       1 UNK         0.0000 
   2143 N(1)       23.4338   57.5834    5.2264 N.am      1 UNK         0.0000 
   2144 C(1)       23.3343   58.9918    5.1752 C.ar      1 UNK         0.0000 
   2145 C(2)       22.2522   59.6800    4.6269 C.ar      1 UNK         0.0000 
   2146 C(3)       22.2451   61.0718    4.6234 C.ar      1 UNK         0.0000 
   2147 C(4)       23.3152   61.7864    5.1557 C.ar      1 UNK         0.0000 
   2148 C(5)       24.4108   61.0985    5.6759 C.ar      1 UNK         0.0000 
   2149 C(6)       24.4161   59.7110    5.6846 C.ar      1 UNK         0.0000 
   2150 C(7)       22.4430   56.6781    5.1796 C.2       1 UNK         0.0000 
   2151 C(8)       22.8839   55.2439    5.3006 C.3       1 UNK         0.0000 
   2152 H(1)       21.4116   59.1375    4.2122 H         1 UNK         0.0000 
   2153 H(2)       21.3943   61.5883    4.1963 H         1 UNK         0.0000 
   2154 H(3)       25.2539   61.6478    6.0762 H         1 UNK         0.0000 
   2155 H(4)       25.2667   59.1775    6.0906 H         1 UNK         0.0000 
   2156 H(5)       24.1239   63.5304    5.3025 H         1 UNK         0.0000 
   2157 H(6)       24.3597   57.2199    5.3956 H         1 UNK         0.0000 
   2158 H(7)       22.8056   54.7808    4.3514 H         1 UNK         0.0000 
   2159 H(8)       23.8806   55.1458    5.6446 H         1 UNK         0.0000 
   2160 H(9)       22.2034   54.7263    5.9254 H         1 UNK         0.0000 
   2161 O(1)       20.5073   71.3634    6.2473 O.3       1 UNK         0.0000 
   2162 O(2)       18.5095   70.1233   12.2913 O.2       1 UNK         0.0000 
   2163 N(1)       20.6907   70.0726   11.6604 N.am      1 UNK         0.0000 
   2164 C(1)       20.5912   70.4316   10.2975 C.ar      1 UNK         0.0000 
   2165 C(2)       19.5091   71.1174    9.7463 C.ar      1 UNK         0.0000 
   2166 C(3)       19.5020   71.4262    8.3892 C.ar      1 UNK         0.0000 
   2167 C(4)       20.5720   71.0635    7.5752 C.ar      1 UNK         0.0000 
   2168 C(5)       21.6677   70.4052    8.1323 C.ar      1 UNK         0.0000 
   2169 C(6)       21.6730   70.0923    9.4841 C.ar      1 UNK         0.0000 
   2170 C(7)       19.6999   69.9198   12.5539 C.2       1 UNK         0.0000 
   2171 C(8)       20.1407   69.4872   13.9266 C.3       1 UNK         0.0000 
   2172 H(1)       18.6685   71.4031   10.3666 H         1 UNK         0.0000 
   2173 H(2)       18.6512   71.9561    7.9789 H         1 UNK         0.0000 
   2174 H(3)       22.5108   70.1351    7.5086 H         1 UNK         0.0000 
   2175 H(4)       22.5236   69.5792    9.9156 H         1 UNK         0.0000 
   2176 H(5)       21.3808   71.3028    5.8415 H         1 UNK         0.0000 
   2177 H(6)       21.6166   69.8279   11.9779 H         1 UNK         0.0000 
   2178 H(7)       20.0625   70.3116   14.5866 H         1 UNK         0.0000 
   2179 H(8)       21.1375   69.1300   13.9469 H         1 UNK         0.0000 
   2180 H(9)       19.4603   68.7641   14.2946 H         1 UNK         0.0000 
   2181 O(1)       24.8608   60.0419    9.4321 O.3       1 UNK         0.0000 
   2182 O(2)       26.8586   66.2106    9.5479 O.2       1 UNK         0.0000 
   2183 N(1)       24.6775   65.6062    9.3602 N.am      1 UNK         0.0000 
   2184 C(1)       24.7770   64.1978    9.4114 C.ar      1 UNK         0.0000 
   2185 C(2)       25.8591   63.5096    9.9597 C.ar      1 UNK         0.0000 
   2186 C(3)       25.8661   62.1178    9.9633 C.ar      1 UNK         0.0000 
   2187 C(4)       24.7961   61.4032    9.4309 C.ar      1 UNK         0.0000 
   2188 C(5)       23.7005   62.0911    8.9107 C.ar      1 UNK         0.0000 
   2189 C(6)       23.6952   63.4786    8.9020 C.ar      1 UNK         0.0000 
   2190 C(7)       25.6683   66.5115    9.4070 C.2       1 UNK         0.0000 
   2191 C(8)       25.2274   67.9457    9.2860 C.3       1 UNK         0.0000 
   2192 H(1)       26.6996   64.0521   10.3744 H         1 UNK         0.0000 
   2193 H(2)       26.7170   61.6013   10.3903 H         1 UNK         0.0000 
   2194 H(3)       22.8573   61.5418    8.5104 H         1 UNK         0.0000 
   2195 H(4)       22.8446   64.0121    8.4961 H         1 UNK         0.0000 
   2196 H(5)       23.9874   59.6593    9.2841 H         1 UNK         0.0000 
   2197 H(6)       23.7515   65.9697    9.1910 H         1 UNK         0.0000 
   2198 H(7)       25.3057   68.4088   10.2352 H         1 UNK         0.0000 
   2199 H(8)       24.2306   68.0438    8.9420 H         1 UNK         0.0000 
   2200 H(9)       25.9079   68.4633    8.6612 H         1 UNK         0.0000 
   2201 O(1)       15.0407   72.2396   15.5017 O.3       1 UNK         0.0000 
   2202 O(2)       17.0385   73.4796    9.4577 O.2       1 UNK         0.0000 
   2203 N(1)       14.8574   73.5303   10.0886 N.am      1 UNK         0.0000 
   2204 C(1)       14.9568   73.1714   11.4515 C.ar      1 UNK         0.0000 
   2205 C(2)       16.0390   72.4855   12.0027 C.ar      1 UNK         0.0000 
   2206 C(3)       16.0460   72.1767   13.3599 C.ar      1 UNK         0.0000 
   2207 C(4)       14.9760   72.5394   14.1738 C.ar      1 UNK         0.0000 
   2208 C(5)       13.8804   73.1977   13.6167 C.ar      1 UNK         0.0000 
   2209 C(6)       13.8751   73.5106   12.2649 C.ar      1 UNK         0.0000 
   2210 C(7)       15.8482   73.6831    9.1951 C.2       1 UNK         0.0000 
   2211 C(8)       15.4073   74.1157    7.8224 C.3       1 UNK         0.0000 
   2212 H(1)       16.8795   72.1998   11.3824 H         1 UNK         0.0000 
   2213 H(2)       16.8968   71.6468   13.7701 H         1 UNK         0.0000 
   2214 H(3)       13.0372   73.4678   14.2404 H         1 UNK         0.0000 
   2215 H(4)       13.0245   74.0237   11.8334 H         1 UNK         0.0000 
   2216 H(5)       14.1673   72.3001   15.9075 H         1 UNK         0.0000 
   2217 H(6)       13.9314   73.7750    9.7711 H         1 UNK         0.0000 
   2218 H(7)       15.4856   73.2913    7.1624 H         1 UNK         0.0000 
   2219 H(8)       14.4105   74.4729    7.8021 H         1 UNK         0.0000 
   2220 H(9)       16.0878   74.8388    7.4544 H         1 UNK         0.0000 
   2221 O(1)       16.1734   68.8787   12.3169 O.3       1 UNK         0.0000 
   2222 O(2)       14.1756   62.7099   12.2011 O.2       1 UNK         0.0000 
   2223 N(1)       16.3568   63.3143   12.3888 N.am      1 UNK         0.0000 
   2224 C(1)       16.2573   64.7228   12.3376 C.ar      1 UNK         0.0000 
   2225 C(2)       15.1752   65.4110   11.7893 C.ar      1 UNK         0.0000 
   2226 C(3)       15.1681   66.8028   11.7858 C.ar      1 UNK         0.0000 
   2227 C(4)       16.2382   67.5174   12.3181 C.ar      1 UNK         0.0000 
   2228 C(5)       17.3338   66.8295   12.8383 C.ar      1 UNK         0.0000 
   2229 C(6)       17.3391   65.4419   12.8470 C.ar      1 UNK         0.0000 
   2230 C(7)       15.3660   62.4090   12.3420 C.2       1 UNK         0.0000 
   2231 C(8)       15.8069   60.9749   12.4630 C.3       1 UNK         0.0000 
   2232 H(1)       14.3346   64.8685   11.3746 H         1 UNK         0.0000 
   2233 H(2)       14.3173   67.3193   11.3587 H         1 UNK         0.0000 
   2234 H(3)       18.1769   67.3787   13.2386 H         1 UNK         0.0000 
   2235 H(4)       18.1897   64.9084   13.2530 H         1 UNK         0.0000 
   2236 H(5)       17.0469   69.2613   12.4649 H         1 UNK         0.0000 
   2237 H(6)       17.2827   62.9509   12.5580 H         1 UNK         0.0000 
   2238 H(7)       15.7286   60.5118   11.5138 H         1 UNK         0.0000 
   2239 H(8)       16.8036   60.8768   12.8070 H         1 UNK         0.0000 
   2240 H(9)       15.1264   60.4572   13.0878 H         1 UNK         0.0000 
   2241 O(1)       20.5073   77.0943   13.4097 O.3       1 UNK         0.0000 
   2242 O(2)       18.5095   75.8542   19.4537 O.2       1 UNK         0.0000 
   2243 N(1)       20.6907   75.8036   18.8228 N.am      1 UNK         0.0000 
   2244 C(1)       20.5912   76.1625   17.4599 C.ar      1 UNK         0.0000 
   2245 C(2)       19.5091   76.8484   16.9087 C.ar      1 UNK         0.0000 
   2246 C(3)       19.5020   77.1572   15.5516 C.ar      1 UNK         0.0000 
   2247 C(4)       20.5720   76.7945   14.7376 C.ar      1 UNK         0.0000 
   2248 C(5)       21.6677   76.1361   15.2947 C.ar      1 UNK         0.0000 
   2249 C(6)       21.6730   75.8232   16.6465 C.ar      1 UNK         0.0000 
   2250 C(7)       19.6999   75.6508   19.7163 C.2       1 UNK         0.0000 
   2251 C(8)       20.1407   75.2181   21.0890 C.3       1 UNK         0.0000 
   2252 H(1)       18.6685   77.1341   17.5290 H         1 UNK         0.0000 
   2253 H(2)       18.6512   77.6871   15.1413 H         1 UNK         0.0000 
   2254 H(3)       22.5108   75.8660   14.6710 H         1 UNK         0.0000 
   2255 H(4)       22.5236   75.3102   17.0780 H         1 UNK         0.0000 
   2256 H(5)       21.3808   77.0338   13.0039 H         1 UNK         0.0000 
   2257 H(6)       21.6166   75.5589   19.1403 H         1 UNK         0.0000 
   2258 H(7)       20.0625   76.0426   21.7490 H         1 UNK         0.0000 
   2259 H(8)       21.1375   74.8610   21.1093 H         1 UNK         0.0000 
   2260 H(9)       19.4603   74.4950   21.4570 H         1 UNK         0.0000 
   2261 O(1)       24.8608   65.7728   16.5945 O.3       1 UNK         0.0000 
   2262 O(2)       26.8586   71.9416   16.7103 O.2       1 UNK         0.0000 
   2263 N(1)       24.6775   71.3372   16.5226 N.am      1 UNK         0.0000 
   2264 C(1)       24.7770   69.9288   16.5738 C.ar      1 UNK         0.0000 
   2265 C(2)       25.8591   69.2405   17.1221 C.ar      1 UNK         0.0000 
   2266 C(3)       25.8661   67.8487   17.1257 C.ar      1 UNK         0.0000 
   2267 C(4)       24.7961   67.1341   16.5933 C.ar      1 UNK         0.0000 
   2268 C(5)       23.7005   67.8221   16.0731 C.ar      1 UNK         0.0000 
   2269 C(6)       23.6952   69.2096   16.0644 C.ar      1 UNK         0.0000 
   2270 C(7)       25.6683   72.2425   16.5694 C.2       1 UNK         0.0000 
   2271 C(8)       25.2274   73.6766   16.4484 C.3       1 UNK         0.0000 
   2272 H(1)       26.6996   69.7831   17.5368 H         1 UNK         0.0000 
   2273 H(2)       26.7170   67.3323   17.5527 H         1 UNK         0.0000 
   2274 H(3)       22.8573   67.2728   15.6728 H         1 UNK         0.0000 
   2275 H(4)       22.8446   69.7431   15.6585 H         1 UNK         0.0000 
   2276 H(5)       23.9874   65.3902   16.4465 H         1 UNK         0.0000 
   2277 H(6)       23.7515   71.7007   16.3534 H         1 UNK         0.0000 
   2278 H(7)       25.3057   74.1397   17.3976 H         1 UNK         0.0000 
   2279 H(8)       24.2306   73.7748   16.1044 H         1 UNK         0.0000 
   2280 H(9)       25.9079   74.1943   15.8236 H         1 UNK         0.0000 
   2281 O(1)       20.5269   63.2882   22.6641 O.3       1 UNK         0.0000 
   2282 O(2)       22.5248   64.5283   16.6201 O.2       1 UNK         0.0000 
   2283 N(1)       20.3436   64.5789   17.2510 N.am      1 UNK         0.0000 
   2284 C(1)       20.4431   64.2200   18.6139 C.ar      1 UNK         0.0000 
   2285 C(2)       21.5252   63.5341   19.1651 C.ar      1 UNK         0.0000 
   2286 C(3)       21.5322   63.2253   20.5223 C.ar      1 UNK         0.0000 
   2287 C(4)       20.4622   63.5880   21.3362 C.ar      1 UNK         0.0000 
   2288 C(5)       19.3666   64.2464   20.7791 C.ar      1 UNK         0.0000 
   2289 C(6)       19.3613   64.5593   19.4273 C.ar      1 UNK         0.0000 
   2290 C(7)       21.3344   64.7317   16.3575 C.2       1 UNK         0.0000 
   2291 C(8)       20.8935   65.1644   14.9848 C.3       1 UNK         0.0000 
   2292 H(1)       22.3658   63.2484   18.5448 H         1 UNK         0.0000 
   2293 H(2)       22.3831   62.6954   20.9325 H         1 UNK         0.0000 
   2294 H(3)       18.5234   64.5165   21.4028 H         1 UNK         0.0000 
   2295 H(4)       18.5107   65.0723   18.9958 H         1 UNK         0.0000 
   2296 H(5)       19.6535   63.3487   23.0699 H         1 UNK         0.0000 
   2297 H(6)       19.4176   64.8236   16.9335 H         1 UNK         0.0000 
   2298 H(7)       20.9718   64.3399   14.3248 H         1 UNK         0.0000 
   2299 H(8)       19.8967   65.5215   14.9645 H         1 UNK         0.0000 
   2300 H(9)       21.5740   65.8875   14.6168 H         1 UNK         0.0000 
   2301 O(1)       23.2504   74.6097   19.4793 O.3       1 UNK         0.0000 
   2302 O(2)       21.2526   68.4409   19.3635 O.2       1 UNK         0.0000 
   2303 N(1)       23.4338   69.0453   19.5512 N.am      1 UNK         0.0000 
   2304 C(1)       23.3343   70.4537   19.5000 C.ar      1 UNK         0.0000 
   2305 C(2)       22.2522   71.1420   18.9517 C.ar      1 UNK         0.0000 
   2306 C(3)       22.2451   72.5338   18.9482 C.ar      1 UNK         0.0000 
   2307 C(4)       23.3152   73.2484   19.4805 C.ar      1 UNK         0.0000 
   2308 C(5)       24.4108   72.5605   20.0007 C.ar      1 UNK         0.0000 
   2309 C(6)       24.4161   71.1729   20.0094 C.ar      1 UNK         0.0000 
   2310 C(7)       22.4430   68.1400   19.5044 C.2       1 UNK         0.0000 
   2311 C(8)       22.8839   66.7059   19.6254 C.3       1 UNK         0.0000 
   2312 H(1)       21.4116   70.5994   18.5370 H         1 UNK         0.0000 
   2313 H(2)       21.3943   73.0502   18.5211 H         1 UNK         0.0000 
   2314 H(3)       25.2539   73.1097   20.4010 H         1 UNK         0.0000 
   2315 H(4)       25.2667   70.6394   20.4154 H         1 UNK         0.0000 
   2316 H(5)       24.1239   74.9923   19.6273 H         1 UNK         0.0000 
   2317 H(6)       24.3597   68.6818   19.7204 H         1 UNK         0.0000 
   2318 H(7)       22.8056   66.2428   18.6762 H         1 UNK         0.0000 
   2319 H(8)       23.8806   66.6077   19.9694 H         1 UNK         0.0000 
   2320 H(9)       22.2034   66.1882   20.2502 H         1 UNK         0.0000 
   2321 O(1)       18.9166   68.1430   20.5721 O.3       1 UNK         0.0000 
   2322 O(2)       16.9187   66.9029   26.6161 O.2       1 UNK         0.0000 
   2323 N(1)       19.0999   66.8522   25.9852 N.am      1 UNK         0.0000 
   2324 C(1)       19.0004   67.2112   24.6223 C.ar      1 UNK         0.0000 
   2325 C(2)       17.9183   67.8970   24.0711 C.ar      1 UNK         0.0000 
   2326 C(3)       17.9112   68.2058   22.7140 C.ar      1 UNK         0.0000 
   2327 C(4)       18.9813   67.8431   21.9000 C.ar      1 UNK         0.0000 
   2328 C(5)       20.0769   67.1848   22.4571 C.ar      1 UNK         0.0000 
   2329 C(6)       20.0822   66.8719   23.8089 C.ar      1 UNK         0.0000 
   2330 C(7)       18.1091   66.6994   26.8787 C.2       1 UNK         0.0000 
   2331 C(8)       18.5500   66.2668   28.2514 C.3       1 UNK         0.0000 
   2332 H(1)       17.0777   68.1827   24.6914 H         1 UNK         0.0000 
   2333 H(2)       17.0604   68.7357   22.3037 H         1 UNK         0.0000 
   2334 H(3)       20.9200   66.9147   21.8334 H         1 UNK         0.0000 
   2335 H(4)       20.9328   66.3588   24.2404 H         1 UNK         0.0000 
   2336 H(5)       19.7900   68.0824   20.1663 H         1 UNK         0.0000 
   2337 H(6)       20.0258   66.6075   26.3027 H         1 UNK         0.0000 
   2338 H(7)       18.4717   67.0912   28.9114 H         1 UNK         0.0000 
   2339 H(8)       19.5467   65.9096   28.2717 H         1 UNK         0.0000 
   2340 H(9)       17.8695   65.5437   28.6194 H         1 UNK         0.0000 
   2341 O(1)       17.7838   71.5038   23.7569 O.3       1 UNK         0.0000 
   2342 O(2)       19.7816   77.6726   23.8727 O.2       1 UNK         0.0000 
   2343 N(1)       17.6005   77.0682   23.6850 N.am      1 UNK         0.0000 
   2344 C(1)       17.7000   75.6597   23.7362 C.ar      1 UNK         0.0000 
   2345 C(2)       18.7821   74.9715   24.2845 C.ar      1 UNK         0.0000 
   2346 C(3)       18.7891   73.5797   24.2881 C.ar      1 UNK         0.0000 
   2347 C(4)       17.7191   72.8651   23.7557 C.ar      1 UNK         0.0000 
   2348 C(5)       16.6235   73.5530   23.2355 C.ar      1 UNK         0.0000 
   2349 C(6)       16.6182   74.9406   23.2268 C.ar      1 UNK         0.0000 
   2350 C(7)       18.5913   77.9735   23.7318 C.2       1 UNK         0.0000 
   2351 C(8)       18.1504   79.4076   23.6108 C.3       1 UNK         0.0000 
   2352 H(1)       19.6226   75.5140   24.6992 H         1 UNK         0.0000 
   2353 H(2)       19.6400   73.0632   24.7151 H         1 UNK         0.0000 
   2354 H(3)       15.7803   73.0038   22.8352 H         1 UNK         0.0000 
   2355 H(4)       15.7676   75.4741   22.8209 H         1 UNK         0.0000 
   2356 H(5)       16.9104   71.1212   23.6089 H         1 UNK         0.0000 
   2357 H(6)       16.6745   77.4316   23.5158 H         1 UNK         0.0000 
   2358 H(7)       18.2287   79.8707   24.5600 H         1 UNK         0.0000 
   2359 H(8)       17.1536   79.5057   23.2668 H         1 UNK         0.0000 
   2360 H(9)       18.8309   79.9253   22.9860 H         1 UNK         0.0000 
   2361 O(1)       22.1177   66.5086    8.3393 O.3       1 UNK         0.0000 
   2362 O(2)       24.1155   67.7487    2.2953 O.2       1 UNK         0.0000 
   2363 N(1)       21.9344   67.7993    2.9262 N.am      1 UNK         0.0000 
   2364 C(1)       22.0338   67.4404    4.2891 C.ar      1 UNK         0.0000 
   2365 C(2)       23.1160   66.7545    4.8403 C.ar      1 UNK         0.0000 
   2366 C(3)       23.1230   66.4457    6.1975 C.ar      1 UNK         0.0000 
   2367 C(4)       22.0530   66.8084    7.0114 C.ar      1 UNK         0.0000 
   2368 C(5)       20.9574   67.4668    6.4543 C.ar      1 UNK         0.0000 
   2369 C(6)       20.9521   67.7797    5.1025 C.ar      1 UNK         0.0000 
   2370 C(7)       22.9252   67.9521    2.0327 C.2       1 UNK         0.0000 
   2371 C(8)       22.4843   68.3848    0.6600 C.3       1 UNK         0.0000 
   2372 H(1)       23.9565   66.4688    4.2200 H         1 UNK         0.0000 
   2373 H(2)       23.9738   65.9158    6.6077 H         1 UNK         0.0000 
   2374 H(3)       20.1142   67.7369    7.0780 H         1 UNK         0.0000 
   2375 H(4)       20.1015   68.2927    4.6710 H         1 UNK         0.0000 
   2376 H(5)       21.2443   66.5691    8.7451 H         1 UNK         0.0000 
   2377 H(6)       21.0084   68.0440    2.6087 H         1 UNK         0.0000 
   2378 H(7)       22.5626   67.5603    0.0000 H         1 UNK         0.0000 
   2379 H(8)       21.4875   68.7419    0.6397 H         1 UNK         0.0000 
   2380 H(9)       23.1648   69.1079    0.2920 H         1 UNK         0.0000 
   2381 O(1)       24.8412   77.8301    5.1545 O.3       1 UNK         0.0000 
   2382 O(2)       22.8434   71.6613    5.0387 O.2       1 UNK         0.0000 
   2383 N(1)       25.0246   72.2657    5.2264 N.am      1 UNK         0.0000 
   2384 C(1)       24.9251   73.6741    5.1752 C.ar      1 UNK         0.0000 
   2385 C(2)       23.8429   74.3624    4.6269 C.ar      1 UNK         0.0000 
   2386 C(3)       23.8359   75.7542    4.6234 C.ar      1 UNK         0.0000 
   2387 C(4)       24.9059   76.4688    5.1557 C.ar      1 UNK         0.0000 
   2388 C(5)       26.0015   75.7809    5.6759 C.ar      1 UNK         0.0000 
   2389 C(6)       26.0069   74.3933    5.6846 C.ar      1 UNK         0.0000 
   2390 C(7)       24.0338   71.3604    5.1796 C.2       1 UNK         0.0000 
   2391 C(8)       24.4746   69.9263    5.3006 C.3       1 UNK         0.0000 
   2392 H(1)       23.0024   73.8198    4.2122 H         1 UNK         0.0000 
   2393 H(2)       22.9851   76.2706    4.1963 H         1 UNK         0.0000 
   2394 H(3)       26.8447   76.3301    6.0762 H         1 UNK         0.0000 
   2395 H(4)       26.8575   73.8598    6.0906 H         1 UNK         0.0000 
   2396 H(5)       25.7147   78.2127    5.3025 H         1 UNK         0.0000 
   2397 H(6)       25.9505   71.9022    5.3956 H         1 UNK         0.0000 
   2398 H(7)       24.3964   69.4632    4.3514 H         1 UNK         0.0000 
   2399 H(8)       25.4714   69.8281    5.6446 H         1 UNK         0.0000 
   2400 H(9)       23.7942   69.4086    5.9254 H         1 UNK         0.0000 
   2401 O(1)       21.2212   12.6340    6.2473 O.3       1 UNK         0.0000 
   2402 O(2)       19.2234   11.3940   12.2913 O.2       1 UNK         0.0000 
   2403 N(1)       21.4045   11.3433   11.6604 N.am      1 UNK         0.0000 
   2404 C(1)       21.3051   11.7022   10.2975 C.ar      1 UNK         0.0000 
   2405 C(2)       20.2229   12.3881    9.7463 C.ar      1 UNK         0.0000 
   2406 C(3)       20.2159   12.6969    8.3892 C.ar      1 UNK         0.0000 
   2407 C(4)       21.2859   12.3342    7.5752 C.ar      1 UNK         0.0000 
   2408 C(5)       22.3815   11.6758    8.1323 C.ar      1 UNK         0.0000 
   2409 C(6)       22.3868   11.3630    9.4841 C.ar      1 UNK         0.0000 
   2410 C(7)       20.4138   11.1905   12.5539 C.2       1 UNK         0.0000 
   2411 C(8)       20.8546   10.7579   13.9266 C.3       1 UNK         0.0000 
   2412 H(1)       19.3824   12.6738   10.3666 H         1 UNK         0.0000 
   2413 H(2)       19.3651   13.2268    7.9789 H         1 UNK         0.0000 
   2414 H(3)       23.2247   11.4057    7.5086 H         1 UNK         0.0000 
   2415 H(4)       23.2374   10.8499    9.9156 H         1 UNK         0.0000 
   2416 H(5)       22.0946   12.5735    5.8415 H         1 UNK         0.0000 
   2417 H(6)       22.3305   11.0986   11.9779 H         1 UNK         0.0000 
   2418 H(7)       20.7763   11.5823   14.5866 H         1 UNK         0.0000 
   2419 H(8)       21.8514   10.4007   13.9469 H         1 UNK         0.0000 
   2420 H(9)       20.1741   10.0347   14.2946 H         1 UNK         0.0000 
   2421 O(1)       25.5747    1.3125    9.4321 O.3       1 UNK         0.0000 
   2422 O(2)       27.5725    7.4813    9.5479 O.2       1 UNK         0.0000 
   2423 N(1)       25.3914    6.8769    9.3602 N.am      1 UNK         0.0000 
   2424 C(1)       25.4908    5.4685    9.4114 C.ar      1 UNK         0.0000 
   2425 C(2)       26.5730    4.7803    9.9597 C.ar      1 UNK         0.0000 
   2426 C(3)       26.5800    3.3885    9.9633 C.ar      1 UNK         0.0000 
   2427 C(4)       25.5100    2.6738    9.4309 C.ar      1 UNK         0.0000 
   2428 C(5)       24.4144    3.3618    8.9107 C.ar      1 UNK         0.0000 
   2429 C(6)       24.4091    4.7493    8.9020 C.ar      1 UNK         0.0000 
   2430 C(7)       26.3821    7.7822    9.4070 C.2       1 UNK         0.0000 
   2431 C(8)       25.9413    9.2163    9.2860 C.3       1 UNK         0.0000 
   2432 H(1)       27.4135    5.3228   10.3744 H         1 UNK         0.0000 
   2433 H(2)       27.4308    2.8720   10.3903 H         1 UNK         0.0000 
   2434 H(3)       23.5712    2.8125    8.5104 H         1 UNK         0.0000 
   2435 H(4)       23.5584    5.2828    8.4961 H         1 UNK         0.0000 
   2436 H(5)       24.7013    0.9299    9.2841 H         1 UNK         0.0000 
   2437 H(6)       24.4654    7.2404    9.1910 H         1 UNK         0.0000 
   2438 H(7)       26.0195    9.6795   10.2352 H         1 UNK         0.0000 
   2439 H(8)       24.9445    9.3145    8.9420 H         1 UNK         0.0000 
   2440 H(9)       26.6218    9.7340    8.6612 H         1 UNK         0.0000 
   2441 O(1)       15.7546   13.5102   15.5017 O.3       1 UNK         0.0000 
   2442 O(2)       17.7524   14.7503    9.4577 O.2       1 UNK         0.0000 
   2443 N(1)       15.5713   14.8009   10.0886 N.am      1 UNK         0.0000 
   2444 C(1)       15.6707   14.4420   11.4515 C.ar      1 UNK         0.0000 
   2445 C(2)       16.7529   13.7561   12.0027 C.ar      1 UNK         0.0000 
   2446 C(3)       16.7599   13.4474   13.3599 C.ar      1 UNK         0.0000 
   2447 C(4)       15.6899   13.8100   14.1738 C.ar      1 UNK         0.0000 
   2448 C(5)       14.5943   14.4684   13.6167 C.ar      1 UNK         0.0000 
   2449 C(6)       14.5890   14.7813   12.2649 C.ar      1 UNK         0.0000 
   2450 C(7)       16.5620   14.9538    9.1951 C.2       1 UNK         0.0000 
   2451 C(8)       16.1212   15.3864    7.8224 C.3       1 UNK         0.0000 
   2452 H(1)       17.5934   13.4705   11.3824 H         1 UNK         0.0000 
   2453 H(2)       17.6107   12.9175   13.7701 H         1 UNK         0.0000 
   2454 H(3)       13.7511   14.7385   14.2404 H         1 UNK         0.0000 
   2455 H(4)       13.7383   15.2944   11.8334 H         1 UNK         0.0000 
   2456 H(5)       14.8811   13.5707   15.9075 H         1 UNK         0.0000 
   2457 H(6)       14.6453   15.0457    9.7711 H         1 UNK         0.0000 
   2458 H(7)       16.1994   14.5620    7.1624 H         1 UNK         0.0000 
   2459 H(8)       15.1244   15.7436    7.8021 H         1 UNK         0.0000 
   2460 H(9)       16.8017   16.1095    7.4544 H         1 UNK         0.0000 
   2461 O(1)       16.8873   10.1494   12.3169 O.3       1 UNK         0.0000 
   2462 O(2)       14.8895    3.9806   12.2011 O.2       1 UNK         0.0000 
   2463 N(1)       17.0706    4.5850   12.3888 N.am      1 UNK         0.0000 
   2464 C(1)       16.9712    5.9935   12.3376 C.ar      1 UNK         0.0000 
   2465 C(2)       15.8890    6.6817   11.7893 C.ar      1 UNK         0.0000 
   2466 C(3)       15.8820    8.0735   11.7858 C.ar      1 UNK         0.0000 
   2467 C(4)       16.9520    8.7881   12.3181 C.ar      1 UNK         0.0000 
   2468 C(5)       18.0476    8.1002   12.8383 C.ar      1 UNK         0.0000 
   2469 C(6)       18.0529    6.7126   12.8470 C.ar      1 UNK         0.0000 
   2470 C(7)       16.0799    3.6797   12.3420 C.2       1 UNK         0.0000 
   2471 C(8)       16.5207    2.2456   12.4630 C.3       1 UNK         0.0000 
   2472 H(1)       15.0485    6.1391   11.3746 H         1 UNK         0.0000 
   2473 H(2)       15.0312    8.5900   11.3587 H         1 UNK         0.0000 
   2474 H(3)       18.8908    8.6494   13.2386 H         1 UNK         0.0000 
   2475 H(4)       18.9036    6.1791   13.2530 H         1 UNK         0.0000 
   2476 H(5)       17.7607   10.5320   12.4649 H         1 UNK         0.0000 
   2477 H(6)       17.9966    4.2215   12.5580 H         1 UNK         0.0000 
   2478 H(7)       16.4425    1.7825   11.5138 H         1 UNK         0.0000 
   2479 H(8)       17.5175    2.1474   12.8070 H         1 UNK         0.0000 
   2480 H(9)       15.8402    1.7279   13.0878 H         1 UNK         0.0000 
   2481 O(1)       21.2212   18.3650   13.4097 O.3       1 UNK         0.0000 
   2482 O(2)       19.2234   17.1249   19.4537 O.2       1 UNK         0.0000 
   2483 N(1)       21.4045   17.0743   18.8228 N.am      1 UNK         0.0000 
   2484 C(1)       21.3051   17.4332   17.4599 C.ar      1 UNK         0.0000 
   2485 C(2)       20.2229   18.1191   16.9087 C.ar      1 UNK         0.0000 
   2486 C(3)       20.2159   18.4278   15.5516 C.ar      1 UNK         0.0000 
   2487 C(4)       21.2859   18.0652   14.7376 C.ar      1 UNK         0.0000 
   2488 C(5)       22.3815   17.4068   15.2947 C.ar      1 UNK         0.0000 
   2489 C(6)       22.3868   17.0939   16.6465 C.ar      1 UNK         0.0000 
   2490 C(7)       20.4138   16.9215   19.7163 C.2       1 UNK         0.0000 
   2491 C(8)       20.8546   16.4888   21.0890 C.3       1 UNK         0.0000 
   2492 H(1)       19.3824   18.4047   17.5290 H         1 UNK         0.0000 
   2493 H(2)       19.3651   18.9577   15.1413 H         1 UNK         0.0000 
   2494 H(3)       23.2247   17.1367   14.6710 H         1 UNK         0.0000 
   2495 H(4)       23.2374   16.5809   17.0780 H         1 UNK         0.0000 
   2496 H(5)       22.0946   18.3045   13.0039 H         1 UNK         0.0000 
   2497 H(6)       22.3305   16.8295   19.1403 H         1 UNK         0.0000 
   2498 H(7)       20.7763   17.3133   21.7490 H         1 UNK         0.0000 
   2499 H(8)       21.8514   16.1317   21.1093 H         1 UNK         0.0000 
   2500 H(9)       20.1741   15.7657   21.4570 H         1 UNK         0.0000 
   2501 O(1)       25.5747    7.0435   16.5945 O.3       1 UNK         0.0000 
   2502 O(2)       27.5725   13.2123   16.7103 O.2       1 UNK         0.0000 
   2503 N(1)       25.3914   12.6079   16.5226 N.am      1 UNK         0.0000 
   2504 C(1)       25.4908   11.1994   16.5738 C.ar      1 UNK         0.0000 
   2505 C(2)       26.5730   10.5112   17.1221 C.ar      1 UNK         0.0000 
   2506 C(3)       26.5800    9.1194   17.1257 C.ar      1 UNK         0.0000 
   2507 C(4)       25.5100    8.4048   16.5933 C.ar      1 UNK         0.0000 
   2508 C(5)       24.4144    9.0927   16.0731 C.ar      1 UNK         0.0000 
   2509 C(6)       24.4091   10.4803   16.0644 C.ar      1 UNK         0.0000 
   2510 C(7)       26.3821   13.5132   16.5694 C.2       1 UNK         0.0000 
   2511 C(8)       25.9413   14.9473   16.4484 C.3       1 UNK         0.0000 
   2512 H(1)       27.4135   11.0538   17.5368 H         1 UNK         0.0000 
   2513 H(2)       27.4308    8.6029   17.5527 H         1 UNK         0.0000 
   2514 H(3)       23.5712    8.5435   15.6728 H         1 UNK         0.0000 
   2515 H(4)       23.5584   11.0138   15.6585 H         1 UNK         0.0000 
   2516 H(5)       24.7013    6.6609   16.4465 H         1 UNK         0.0000 
   2517 H(6)       24.4654   12.9713   16.3534 H         1 UNK         0.0000 
   2518 H(7)       26.0195   15.4104   17.3976 H         1 UNK         0.0000 
   2519 H(8)       24.9445   15.0455   16.1044 H         1 UNK         0.0000 
   2520 H(9)       26.6218   15.4650   15.8236 H         1 UNK         0.0000 
   2521 O(1)       21.2408    4.5589   22.6641 O.3       1 UNK         0.0000 
   2522 O(2)       23.2386    5.7989   16.6201 O.2       1 UNK         0.0000 
   2523 N(1)       21.0575    5.8496   17.2510 N.am      1 UNK         0.0000 
   2524 C(1)       21.1569    5.4907   18.6139 C.ar      1 UNK         0.0000 
   2525 C(2)       22.2391    4.8048   19.1651 C.ar      1 UNK         0.0000 
   2526 C(3)       22.2461    4.4960   20.5223 C.ar      1 UNK         0.0000 
   2527 C(4)       21.1761    4.8587   21.3362 C.ar      1 UNK         0.0000 
   2528 C(5)       20.0805    5.5171   20.7791 C.ar      1 UNK         0.0000 
   2529 C(6)       20.0752    5.8299   19.4273 C.ar      1 UNK         0.0000 
   2530 C(7)       22.0482    6.0024   16.3575 C.2       1 UNK         0.0000 
   2531 C(8)       21.6074    6.4350   14.9848 C.3       1 UNK         0.0000 
   2532 H(1)       23.0796    4.5191   18.5448 H         1 UNK         0.0000 
   2533 H(2)       23.0969    3.9661   20.9325 H         1 UNK         0.0000 
   2534 H(3)       19.2373    5.7872   21.4028 H         1 UNK         0.0000 
   2535 H(4)       19.2246    6.3430   18.9958 H         1 UNK         0.0000 
   2536 H(5)       20.3674    4.6194   23.0699 H         1 UNK         0.0000 
   2537 H(6)       20.1315    6.0943   16.9335 H         1 UNK         0.0000 
   2538 H(7)       21.6857    5.6106   14.3248 H         1 UNK         0.0000 
   2539 H(8)       20.6106    6.7922   14.9645 H         1 UNK         0.0000 
   2540 H(9)       22.2879    7.1582   14.6168 H         1 UNK         0.0000 
   2541 O(1)       23.9643   15.8804   19.4793 O.3       1 UNK         0.0000 
   2542 O(2)       21.9665    9.7116   19.3635 O.2       1 UNK         0.0000 
   2543 N(1)       24.1476   10.3160   19.5512 N.am      1 UNK         0.0000 
   2544 C(1)       24.0482   11.7244   19.5000 C.ar      1 UNK         0.0000 
   2545 C(2)       22.9660   12.4126   18.9517 C.ar      1 UNK         0.0000 
   2546 C(3)       22.9590   13.8044   18.9482 C.ar      1 UNK         0.0000 
   2547 C(4)       24.0290   14.5191   19.4805 C.ar      1 UNK         0.0000 
   2548 C(5)       25.1246   13.8311   20.0007 C.ar      1 UNK         0.0000 
   2549 C(6)       25.1299   12.4436   20.0094 C.ar      1 UNK         0.0000 
   2550 C(7)       23.1569    9.4107   19.5044 C.2       1 UNK         0.0000 
   2551 C(8)       23.5977    7.9766   19.6254 C.3       1 UNK         0.0000 
   2552 H(1)       22.1255   11.8701   18.5370 H         1 UNK         0.0000 
   2553 H(2)       22.1082   14.3209   18.5211 H         1 UNK         0.0000 
   2554 H(3)       25.9678   14.3804   20.4010 H         1 UNK         0.0000 
   2555 H(4)       25.9806   11.9101   20.4154 H         1 UNK         0.0000 
   2556 H(5)       24.8377   16.2630   19.6273 H         1 UNK         0.0000 
   2557 H(6)       25.0736    9.9525   19.7204 H         1 UNK         0.0000 
   2558 H(7)       23.5195    7.5134   18.6762 H         1 UNK         0.0000 
   2559 H(8)       24.5945    7.8784   19.9694 H         1 UNK         0.0000 
   2560 H(9)       22.9172    7.4589   20.2502 H         1 UNK         0.0000 
   2561 O(1)       19.6304    9.4136   20.5721 O.3       1 UNK         0.0000 
   2562 O(2)       17.6326    8.1736   26.6161 O.2       1 UNK         0.0000 
   2563 N(1)       19.8137    8.1229   25.9852 N.am      1 UNK         0.0000 
   2564 C(1)       19.7143    8.4818   24.6223 C.ar      1 UNK         0.0000 
   2565 C(2)       18.6321    9.1677   24.0711 C.ar      1 UNK         0.0000 
   2566 C(3)       18.6251    9.4765   22.7140 C.ar      1 UNK         0.0000 
   2567 C(4)       19.6951    9.1138   21.9000 C.ar      1 UNK         0.0000 
   2568 C(5)       20.7907    8.4554   22.4571 C.ar      1 UNK         0.0000 
   2569 C(6)       20.7960    8.1426   23.8089 C.ar      1 UNK         0.0000 
   2570 C(7)       18.8230    7.9701   26.8787 C.2       1 UNK         0.0000 
   2571 C(8)       19.2638    7.5375   28.2514 C.3       1 UNK         0.0000 
   2572 H(1)       17.7916    9.4534   24.6914 H         1 UNK         0.0000 
   2573 H(2)       17.7743   10.0064   22.3037 H         1 UNK         0.0000 
   2574 H(3)       21.6339    8.1853   21.8334 H         1 UNK         0.0000 
   2575 H(4)       21.6467    7.6295   24.2404 H         1 UNK         0.0000 
   2576 H(5)       20.5039    9.3531   20.1663 H         1 UNK         0.0000 
   2577 H(6)       20.7397    7.8782   26.3027 H         1 UNK         0.0000 
   2578 H(7)       19.1856    8.3619   28.9114 H         1 UNK         0.0000 
   2579 H(8)       20.2606    7.1803   28.2717 H         1 UNK         0.0000 
   2580 H(9)       18.5833    6.8143   28.6194 H         1 UNK         0.0000 
   2581 O(1)       18.4977   12.7745   23.7569 O.3       1 UNK         0.0000 
   2582 O(2)       20.4955   18.9433   23.8727 O.2       1 UNK         0.0000 
   2583 N(1)       18.3144   18.3389   23.6850 N.am      1 UNK         0.0000 
   2584 C(1)       18.4138   16.9304   23.7362 C.ar      1 UNK         0.0000 
   2585 C(2)       19.4960   16.2422   24.2845 C.ar      1 UNK         0.0000 
   2586 C(3)       19.5030   14.8504   24.2881 C.ar      1 UNK         0.0000 
   2587 C(4)       18.4330   14.1358   23.7557 C.ar      1 UNK         0.0000 
   2588 C(5)       17.3374   14.8237   23.2355 C.ar      1 UNK         0.0000 
   2589 C(6)       17.3321   16.2112   23.2268 C.ar      1 UNK         0.0000 
   2590 C(7)       19.3051   19.2442   23.7318 C.2       1 UNK         0.0000 
   2591 C(8)       18.8643   20.6783   23.6108 C.3       1 UNK         0.0000 
   2592 H(1)       20.3365   16.7847   24.6992 H         1 UNK         0.0000 
   2593 H(2)       20.3538   14.3339   24.7151 H         1 UNK         0.0000 
   2594 H(3)       16.4942   14.2744   22.8352 H         1 UNK         0.0000 
   2595 H(4)       16.4814   16.7448   22.8209 H         1 UNK         0.0000 
   2596 H(5)       17.6243   12.3919   23.6089 H         1 UNK         0.0000 
   2597 H(6)       17.3884   18.7023   23.5158 H         1 UNK         0.0000 
   2598 H(7)       18.9425   21.1414   24.5600 H         1 UNK         0.0000 
   2599 H(8)       17.8675   20.7764   23.2668 H         1 UNK         0.0000 
   2600 H(9)       19.5448   21.1960   22.9860 H         1 UNK         0.0000 
   2601 O(1)       22.8316    7.7793    8.3393 O.3       1 UNK         0.0000 
   2602 O(2)       24.8294    9.0193    2.2953 O.2       1 UNK         0.0000 
   2603 N(1)       22.6483    9.0700    2.9262 N.am      1 UNK         0.0000 
   2604 C(1)       22.7477    8.7111    4.2891 C.ar      1 UNK         0.0000 
   2605 C(2)       23.8299    8.0252    4.8403 C.ar      1 UNK         0.0000 
   2606 C(3)       23.8369    7.7164    6.1975 C.ar      1 UNK         0.0000 
   2607 C(4)       22.7669    8.0791    7.0114 C.ar      1 UNK         0.0000 
   2608 C(5)       21.6713    8.7375    6.4543 C.ar      1 UNK         0.0000 
   2609 C(6)       21.6660    9.0503    5.1025 C.ar      1 UNK         0.0000 
   2610 C(7)       23.6390    9.2228    2.0327 C.2       1 UNK         0.0000 
   2611 C(8)       23.1982    9.6554    0.6600 C.3       1 UNK         0.0000 
   2612 H(1)       24.6704    7.7395    4.2200 H         1 UNK         0.0000 
   2613 H(2)       24.6877    7.1865    6.6077 H         1 UNK         0.0000 
   2614 H(3)       20.8281    9.0076    7.0780 H         1 UNK         0.0000 
   2615 H(4)       20.8153    9.5634    4.6710 H         1 UNK         0.0000 
   2616 H(5)       21.9581    7.8398    8.7451 H         1 UNK         0.0000 
   2617 H(6)       21.7223    9.3147    2.6087 H         1 UNK         0.0000 
   2618 H(7)       23.2764    8.8310    0.0000 H         1 UNK         0.0000 
   2619 H(8)       22.2014   10.0126    0.6397 H         1 UNK         0.0000 
   2620 H(9)       23.8787   10.3786    0.2920 H         1 UNK         0.0000 
   2621 O(1)       25.5551   19.1008    5.1545 O.3       1 UNK         0.0000 
   2622 O(2)       23.5573   12.9320    5.0387 O.2       1 UNK         0.0000 
   2623 N(1)       25.7384   13.5364    5.2264 N.am      1 UNK         0.0000 
   2624 C(1)       25.6390   14.9448    5.1752 C.ar      1 UNK         0.0000 
   2625 C(2)       24.5568   15.6330    4.6269 C.ar      1 UNK         0.0000 
   2626 C(3)       24.5498   17.0248    4.6234 C.ar      1 UNK         0.0000 
   2627 C(4)       25.6198   17.7395    5.1557 C.ar      1 UNK         0.0000 
   2628 C(5)       26.7154   17.0515    5.6759 C.ar      1 UNK         0.0000 
   2629 C(6)       26.7207   15.6640    5.6846 C.ar      1 UNK         0.0000 
   2630 C(7)       24.7476   12.6311    5.1796 C.2       1 UNK         0.0000 
   2631 C(8)       25.1885   11.1969    5.3006 C.3       1 UNK         0.0000 
   2632 H(1)       23.7163   15.0905    4.2122 H         1 UNK         0.0000 
   2633 H(2)       23.6990   17.5413    4.1963 H         1 UNK         0.0000 
   2634 H(3)       27.5586   17.6008    6.0762 H         1 UNK         0.0000 
   2635 H(4)       27.5713   15.1305    6.0906 H         1 UNK         0.0000 
   2636 H(5)       26.4285   19.4834    5.3025 H         1 UNK         0.0000 
   2637 H(6)       26.6644   13.1729    5.3956 H         1 UNK         0.0000 
   2638 H(7)       25.1102   10.7338    4.3514 H         1 UNK         0.0000 
   2639 H(8)       26.1853   11.0988    5.6446 H         1 UNK         0.0000 
   2640 H(9)       24.5080   10.6793    5.9254 H         1 UNK         0.0000 
   2641 O(1)       22.8120   27.3164    6.2473 O.3       1 UNK         0.0000 
   2642 O(2)       20.8142   26.0763   12.2913 O.2       1 UNK         0.0000 
   2643 N(1)       22.9953   26.0256   11.6604 N.am      1 UNK         0.0000 
   2644 C(1)       22.8959   26.3846   10.2975 C.ar      1 UNK         0.0000 
   2645 C(2)       21.8137   27.0704    9.7463 C.ar      1 UNK         0.0000 
   2646 C(3)       21.8067   27.3792    8.3892 C.ar      1 UNK         0.0000 
   2647 C(4)       22.8767   27.0165    7.5752 C.ar      1 UNK         0.0000 
   2648 C(5)       23.9723   26.3582    8.1323 C.ar      1 UNK         0.0000 
   2649 C(6)       23.9776   26.0453    9.4841 C.ar      1 UNK         0.0000 
   2650 C(7)       22.0045   25.8728   12.5539 C.2       1 UNK         0.0000 
   2651 C(8)       22.4454   25.4402   13.9266 C.3       1 UNK         0.0000 
   2652 H(1)       20.9732   27.3561   10.3666 H         1 UNK         0.0000 
   2653 H(2)       20.9559   27.9091    7.9789 H         1 UNK         0.0000 
   2654 H(3)       24.8155   26.0881    7.5086 H         1 UNK         0.0000 
   2655 H(4)       24.8282   25.5322    9.9156 H         1 UNK         0.0000 
   2656 H(5)       23.6854   27.2558    5.8415 H         1 UNK         0.0000 
   2657 H(6)       23.9213   25.7809   11.9779 H         1 UNK         0.0000 
   2658 H(7)       22.3671   26.2646   14.5866 H         1 UNK         0.0000 
   2659 H(8)       23.4422   25.0830   13.9469 H         1 UNK         0.0000 
   2660 H(9)       21.7649   24.7171   14.2946 H         1 UNK         0.0000 
   2661 O(1)       27.1655   15.9949    9.4321 O.3       1 UNK         0.0000 
   2662 O(2)       29.1633   22.1637    9.5479 O.2       1 UNK         0.0000 
   2663 N(1)       26.9821   21.5592    9.3602 N.am      1 UNK         0.0000 
   2664 C(1)       27.0816   20.1508    9.4114 C.ar      1 UNK         0.0000 
   2665 C(2)       28.1638   19.4626    9.9597 C.ar      1 UNK         0.0000 
   2666 C(3)       28.1708   18.0708    9.9633 C.ar      1 UNK         0.0000 
   2667 C(4)       27.1008   17.3562    9.4309 C.ar      1 UNK         0.0000 
   2668 C(5)       26.0052   18.0441    8.9107 C.ar      1 UNK         0.0000 
   2669 C(6)       25.9998   19.4316    8.9020 C.ar      1 UNK         0.0000 
   2670 C(7)       27.9729   22.4646    9.4070 C.2       1 UNK         0.0000 
   2671 C(8)       27.5321   23.8987    9.2860 C.3       1 UNK         0.0000 
   2672 H(1)       29.0043   20.0051   10.3744 H         1 UNK         0.0000 
   2673 H(2)       29.0216   17.5543   10.3903 H         1 UNK         0.0000 
   2674 H(3)       25.1620   17.4948    8.5104 H         1 UNK         0.0000 
   2675 H(4)       25.1492   19.9652    8.4961 H         1 UNK         0.0000 
   2676 H(5)       26.2920   15.6123    9.2841 H         1 UNK         0.0000 
   2677 H(6)       26.0562   21.9227    9.1910 H         1 UNK         0.0000 
   2678 H(7)       27.6103   24.3618   10.2352 H         1 UNK         0.0000 
   2679 H(8)       26.5353   23.9968    8.9420 H         1 UNK         0.0000 
   2680 H(9)       28.2125   24.4164    8.6612 H         1 UNK         0.0000 
   2681 O(1)       17.3454   28.1926   15.5017 O.3       1 UNK         0.0000 
   2682 O(2)       19.3432   29.4326    9.4577 O.2       1 UNK         0.0000 
   2683 N(1)       17.1620   29.4833   10.0886 N.am      1 UNK         0.0000 
   2684 C(1)       17.2615   29.1244   11.4515 C.ar      1 UNK         0.0000 
   2685 C(2)       18.3436   28.4385   12.0027 C.ar      1 UNK         0.0000 
   2686 C(3)       18.3507   28.1297   13.3599 C.ar      1 UNK         0.0000 
   2687 C(4)       17.2807   28.4924   14.1738 C.ar      1 UNK         0.0000 
   2688 C(5)       16.1850   29.1508   13.6167 C.ar      1 UNK         0.0000 
   2689 C(6)       16.1797   29.4636   12.2649 C.ar      1 UNK         0.0000 
   2690 C(7)       18.1528   29.6361    9.1951 C.2       1 UNK         0.0000 
   2691 C(8)       17.7120   30.0687    7.8224 C.3       1 UNK         0.0000 
   2692 H(1)       19.1842   28.1528   11.3824 H         1 UNK         0.0000 
   2693 H(2)       19.2015   27.5998   13.7701 H         1 UNK         0.0000 
   2694 H(3)       15.3419   29.4209   14.2404 H         1 UNK         0.0000 
   2695 H(4)       15.3291   29.9767   11.8334 H         1 UNK         0.0000 
   2696 H(5)       16.4719   28.2531   15.9075 H         1 UNK         0.0000 
   2697 H(6)       16.2361   29.7280    9.7711 H         1 UNK         0.0000 
   2698 H(7)       17.7902   29.2443    7.1624 H         1 UNK         0.0000 
   2699 H(8)       16.7152   30.4259    7.8021 H         1 UNK         0.0000 
   2700 H(9)       18.3924   30.7919    7.4544 H         1 UNK         0.0000 
   2701 O(1)       18.4781   24.8317   12.3169 O.3       1 UNK         0.0000 
   2702 O(2)       16.4803   18.6629   12.2011 O.2       1 UNK         0.0000 
   2703 N(1)       18.6614   19.2673   12.3888 N.am      1 UNK         0.0000 
   2704 C(1)       18.5620   20.6758   12.3376 C.ar      1 UNK         0.0000 
   2705 C(2)       17.4798   21.3640   11.7893 C.ar      1 UNK         0.0000 
   2706 C(3)       17.4728   22.7558   11.7858 C.ar      1 UNK         0.0000 
   2707 C(4)       18.5428   23.4704   12.3181 C.ar      1 UNK         0.0000 
   2708 C(5)       19.6384   22.7825   12.8383 C.ar      1 UNK         0.0000 
   2709 C(6)       19.6437   21.3950   12.8470 C.ar      1 UNK         0.0000 
   2710 C(7)       17.6706   18.3620   12.3420 C.2       1 UNK         0.0000 
   2711 C(8)       18.1115   16.9279   12.4630 C.3       1 UNK         0.0000 
   2712 H(1)       16.6393   20.8215   11.3746 H         1 UNK         0.0000 
   2713 H(2)       16.6220   23.2723   11.3587 H         1 UNK         0.0000 
   2714 H(3)       20.4816   23.3317   13.2386 H         1 UNK         0.0000 
   2715 H(4)       20.4943   20.8614   13.2530 H         1 UNK         0.0000 
   2716 H(5)       19.3515   25.2143   12.4649 H         1 UNK         0.0000 
   2717 H(6)       19.5874   18.9039   12.5580 H         1 UNK         0.0000 
   2718 H(7)       18.0332   16.4648   11.5138 H         1 UNK         0.0000 
   2719 H(8)       19.1083   16.8298   12.8070 H         1 UNK         0.0000 
   2720 H(9)       17.4310   16.4102   13.0878 H         1 UNK         0.0000 
   2721 O(1)       22.8120   33.0473   13.4097 O.3       1 UNK         0.0000 
   2722 O(2)       20.8142   31.8072   19.4537 O.2       1 UNK         0.0000 
   2723 N(1)       22.9953   31.7566   18.8228 N.am      1 UNK         0.0000 
   2724 C(1)       22.8959   32.1155   17.4599 C.ar      1 UNK         0.0000 
   2725 C(2)       21.8137   32.8014   16.9087 C.ar      1 UNK         0.0000 
   2726 C(3)       21.8067   33.1102   15.5516 C.ar      1 UNK         0.0000 
   2727 C(4)       22.8767   32.7475   14.7376 C.ar      1 UNK         0.0000 
   2728 C(5)       23.9723   32.0891   15.2947 C.ar      1 UNK         0.0000 
   2729 C(6)       23.9776   31.7763   16.6465 C.ar      1 UNK         0.0000 
   2730 C(7)       22.0045   31.6038   19.7163 C.2       1 UNK         0.0000 
   2731 C(8)       22.4454   31.1711   21.0890 C.3       1 UNK         0.0000 
   2732 H(1)       20.9732   33.0871   17.5290 H         1 UNK         0.0000 
   2733 H(2)       20.9559   33.6401   15.1413 H         1 UNK         0.0000 
   2734 H(3)       24.8155   31.8190   14.6710 H         1 UNK         0.0000 
   2735 H(4)       24.8282   31.2632   17.0780 H         1 UNK         0.0000 
   2736 H(5)       23.6854   32.9868   13.0039 H         1 UNK         0.0000 
   2737 H(6)       23.9213   31.5119   19.1403 H         1 UNK         0.0000 
   2738 H(7)       22.3671   31.9956   21.7490 H         1 UNK         0.0000 
   2739 H(8)       23.4422   30.8140   21.1093 H         1 UNK         0.0000 
   2740 H(9)       21.7649   30.4480   21.4570 H         1 UNK         0.0000 
   2741 O(1)       27.1655   21.7258   16.5945 O.3       1 UNK         0.0000 
   2742 O(2)       29.1633   27.8946   16.7103 O.2       1 UNK         0.0000 
   2743 N(1)       26.9821   27.2902   16.5226 N.am      1 UNK         0.0000 
   2744 C(1)       27.0816   25.8818   16.5738 C.ar      1 UNK         0.0000 
   2745 C(2)       28.1638   25.1936   17.1221 C.ar      1 UNK         0.0000 
   2746 C(3)       28.1708   23.8017   17.1257 C.ar      1 UNK         0.0000 
   2747 C(4)       27.1008   23.0871   16.5933 C.ar      1 UNK         0.0000 
   2748 C(5)       26.0052   23.7751   16.0731 C.ar      1 UNK         0.0000 
   2749 C(6)       25.9998   25.1626   16.0644 C.ar      1 UNK         0.0000 
   2750 C(7)       27.9729   28.1955   16.5694 C.2       1 UNK         0.0000 
   2751 C(8)       27.5321   29.6296   16.4484 C.3       1 UNK         0.0000 
   2752 H(1)       29.0043   25.7361   17.5368 H         1 UNK         0.0000 
   2753 H(2)       29.0216   23.2853   17.5527 H         1 UNK         0.0000 
   2754 H(3)       25.1620   23.2258   15.6728 H         1 UNK         0.0000 
   2755 H(4)       25.1492   25.6961   15.6585 H         1 UNK         0.0000 
   2756 H(5)       26.2920   21.3432   16.4465 H         1 UNK         0.0000 
   2757 H(6)       26.0562   27.6537   16.3534 H         1 UNK         0.0000 
   2758 H(7)       27.6103   30.0928   17.3976 H         1 UNK         0.0000 
   2759 H(8)       26.5353   29.7278   16.1044 H         1 UNK         0.0000 
   2760 H(9)       28.2125   30.1473   15.8236 H         1 UNK         0.0000 
   2761 O(1)       22.8316   19.2412   22.6641 O.3       1 UNK         0.0000 
   2762 O(2)       24.8294   20.4813   16.6201 O.2       1 UNK         0.0000 
   2763 N(1)       22.6483   20.5319   17.2510 N.am      1 UNK         0.0000 
   2764 C(1)       22.7477   20.1730   18.6139 C.ar      1 UNK         0.0000 
   2765 C(2)       23.8299   19.4871   19.1651 C.ar      1 UNK         0.0000 
   2766 C(3)       23.8369   19.1784   20.5223 C.ar      1 UNK         0.0000 
   2767 C(4)       22.7669   19.5410   21.3362 C.ar      1 UNK         0.0000 
   2768 C(5)       21.6713   20.1994   20.7791 C.ar      1 UNK         0.0000 
   2769 C(6)       21.6660   20.5123   19.4273 C.ar      1 UNK         0.0000 
   2770 C(7)       23.6390   20.6847   16.3575 C.2       1 UNK         0.0000 
   2771 C(8)       23.1982   21.1174   14.9848 C.3       1 UNK         0.0000 
   2772 H(1)       24.6704   19.2015   18.5448 H         1 UNK         0.0000 
   2773 H(2)       24.6877   18.6484   20.9325 H         1 UNK         0.0000 
   2774 H(3)       20.8281   20.4695   21.4028 H         1 UNK         0.0000 
   2775 H(4)       20.8153   21.0253   18.9958 H         1 UNK         0.0000 
   2776 H(5)       21.9581   19.3017   23.0699 H         1 UNK         0.0000 
   2777 H(6)       21.7223   20.7767   16.9335 H         1 UNK         0.0000 
   2778 H(7)       23.2764   20.2929   14.3248 H         1 UNK         0.0000 
   2779 H(8)       22.2014   21.4745   14.9645 H         1 UNK         0.0000 
   2780 H(9)       23.8787   21.8405   14.6168 H         1 UNK         0.0000 
   2781 O(1)       25.5551   30.5627   19.4793 O.3       1 UNK         0.0000 
   2782 O(2)       23.5573   24.3939   19.3635 O.2       1 UNK         0.0000 
   2783 N(1)       25.7384   24.9983   19.5512 N.am      1 UNK         0.0000 
   2784 C(1)       25.6390   26.4068   19.5000 C.ar      1 UNK         0.0000 
   2785 C(2)       24.5568   27.0950   18.9517 C.ar      1 UNK         0.0000 
   2786 C(3)       24.5498   28.4868   18.9482 C.ar      1 UNK         0.0000 
   2787 C(4)       25.6198   29.2014   19.4805 C.ar      1 UNK         0.0000 
   2788 C(5)       26.7154   28.5135   20.0007 C.ar      1 UNK         0.0000 
   2789 C(6)       26.7207   27.1259   20.0094 C.ar      1 UNK         0.0000 
   2790 C(7)       24.7476   24.0930   19.5044 C.2       1 UNK         0.0000 
   2791 C(8)       25.1885   22.6589   19.6254 C.3       1 UNK         0.0000 
   2792 H(1)       23.7163   26.5524   18.5370 H         1 UNK         0.0000 
   2793 H(2)       23.6990   29.0033   18.5211 H         1 UNK         0.0000 
   2794 H(3)       27.5586   29.0627   20.4010 H         1 UNK         0.0000 
   2795 H(4)       27.5713   26.5924   20.4154 H         1 UNK         0.0000 
   2796 H(5)       26.4285   30.9453   19.6273 H         1 UNK         0.0000 
   2797 H(6)       26.6644   24.6348   19.7204 H         1 UNK         0.0000 
   2798 H(7)       25.1102   22.1958   18.6762 H         1 UNK         0.0000 
   2799 H(8)       26.1853   22.5607   19.9694 H         1 UNK         0.0000 
   2800 H(9)       24.5080   22.1412   20.2502 H         1 UNK         0.0000 
   2801 O(1)       21.2212   24.0960   20.5721 O.3       1 UNK         0.0000 
   2802 O(2)       19.2234   22.8559   26.6161 O.2       1 UNK         0.0000 
   2803 N(1)       21.4045   22.8052   25.9852 N.am      1 UNK         0.0000 
   2804 C(1)       21.3051   23.1642   24.6223 C.ar      1 UNK         0.0000 
   2805 C(2)       20.2229   23.8500   24.0711 C.ar      1 UNK         0.0000 
   2806 C(3)       20.2159   24.1588   22.7140 C.ar      1 UNK         0.0000 
   2807 C(4)       21.2859   23.7962   21.9000 C.ar      1 UNK         0.0000 
   2808 C(5)       22.3815   23.1378   22.4571 C.ar      1 UNK         0.0000 
   2809 C(6)       22.3868   22.8249   23.8089 C.ar      1 UNK         0.0000 
   2810 C(7)       20.4138   22.6524   26.8787 C.2       1 UNK         0.0000 
   2811 C(8)       20.8546   22.2198   28.2514 C.3       1 UNK         0.0000 
   2812 H(1)       19.3824   24.1357   24.6914 H         1 UNK         0.0000 
   2813 H(2)       19.3651   24.6887   22.3037 H         1 UNK         0.0000 
   2814 H(3)       23.2247   22.8677   21.8334 H         1 UNK         0.0000 
   2815 H(4)       23.2374   22.3118   24.2404 H         1 UNK         0.0000 
   2816 H(5)       22.0946   24.0354   20.1663 H         1 UNK         0.0000 
   2817 H(6)       22.3305   22.5605   26.3027 H         1 UNK         0.0000 
   2818 H(7)       20.7763   23.0442   28.9114 H         1 UNK         0.0000 
   2819 H(8)       21.8514   21.8626   28.2717 H         1 UNK         0.0000 
   2820 H(9)       20.1741   21.4967   28.6194 H         1 UNK         0.0000 
   2821 O(1)       20.0885   27.4568   23.7569 O.3       1 UNK         0.0000 
   2822 O(2)       22.0863   33.6256   23.8727 O.2       1 UNK         0.0000 
   2823 N(1)       19.9051   33.0212   23.6850 N.am      1 UNK         0.0000 
   2824 C(1)       20.0046   31.6127   23.7362 C.ar      1 UNK         0.0000 
   2825 C(2)       21.0868   30.9245   24.2845 C.ar      1 UNK         0.0000 
   2826 C(3)       21.0938   29.5327   24.2881 C.ar      1 UNK         0.0000 
   2827 C(4)       20.0238   28.8181   23.7557 C.ar      1 UNK         0.0000 
   2828 C(5)       18.9282   29.5060   23.2355 C.ar      1 UNK         0.0000 
   2829 C(6)       18.9228   30.8936   23.2268 C.ar      1 UNK         0.0000 
   2830 C(7)       20.8959   33.9265   23.7318 C.2       1 UNK         0.0000 
   2831 C(8)       20.4551   35.3606   23.6108 C.3       1 UNK         0.0000 
   2832 H(1)       21.9273   31.4671   24.6992 H         1 UNK         0.0000 
   2833 H(2)       21.9446   29.0162   24.7151 H         1 UNK         0.0000 
   2834 H(3)       18.0850   28.9568   22.8352 H         1 UNK         0.0000 
   2835 H(4)       18.0722   31.4271   22.8209 H         1 UNK         0.0000 
   2836 H(5)       19.2150   27.0742   23.6089 H         1 UNK         0.0000 
   2837 H(6)       18.9792   33.3846   23.5158 H         1 UNK         0.0000 
   2838 H(7)       20.5333   35.8237   24.5600 H         1 UNK         0.0000 
   2839 H(8)       19.4583   35.4588   23.2668 H         1 UNK         0.0000 
   2840 H(9)       21.1355   35.8783   22.9860 H         1 UNK         0.0000 
   2841 O(1)       24.4224   22.4616    8.3393 O.3       1 UNK         0.0000 
   2842 O(2)       26.4202   23.7017    2.2953 O.2       1 UNK         0.0000 
   2843 N(1)       24.2390   23.7523    2.9262 N.am      1 UNK         0.0000 
   2844 C(1)       24.3385   23.3934    4.2891 C.ar      1 UNK         0.0000 
   2845 C(2)       25.4206   22.7075    4.8403 C.ar      1 UNK         0.0000 
   2846 C(3)       25.4277   22.3988    6.1975 C.ar      1 UNK         0.0000 
   2847 C(4)       24.3577   22.7614    7.0114 C.ar      1 UNK         0.0000 
   2848 C(5)       23.2620   23.4198    6.4543 C.ar      1 UNK         0.0000 
   2849 C(6)       23.2567   23.7327    5.1025 C.ar      1 UNK         0.0000 
   2850 C(7)       25.2298   23.9051    2.0327 C.2       1 UNK         0.0000 
   2851 C(8)       24.7890   24.3378    0.6600 C.3       1 UNK         0.0000 
   2852 H(1)       26.2612   22.4219    4.2200 H         1 UNK         0.0000 
   2853 H(2)       26.2785   21.8688    6.6077 H         1 UNK         0.0000 
   2854 H(3)       22.4189   23.6899    7.0780 H         1 UNK         0.0000 
   2855 H(4)       22.4061   24.2457    4.6710 H         1 UNK         0.0000 
   2856 H(5)       23.5489   22.5221    8.7451 H         1 UNK         0.0000 
   2857 H(6)       23.3131   23.9971    2.6087 H         1 UNK         0.0000 
   2858 H(7)       24.8672   23.5133    0.0000 H         1 UNK         0.0000 
   2859 H(8)       23.7922   24.6949    0.6397 H         1 UNK         0.0000 
   2860 H(9)       25.4694   25.0609    0.2920 H         1 UNK         0.0000 
   2861 O(1)       27.1459   33.7831    5.1545 O.3       1 UNK         0.0000 
   2862 O(2)       25.1481   27.6143    5.0387 O.2       1 UNK         0.0000 
   2863 N(1)       27.3292   28.2187    5.2264 N.am      1 UNK         0.0000 
   2864 C(1)       27.2297   29.6272    5.1752 C.ar      1 UNK         0.0000 
   2865 C(2)       26.1476   30.3154    4.6269 C.ar      1 UNK         0.0000 
   2866 C(3)       26.1406   31.7072    4.6234 C.ar      1 UNK         0.0000 
   2867 C(4)       27.2106   32.4218    5.1557 C.ar      1 UNK         0.0000 
   2868 C(5)       28.3062   31.7339    5.6759 C.ar      1 UNK         0.0000 
   2869 C(6)       28.3115   30.3463    5.6846 C.ar      1 UNK         0.0000 
   2870 C(7)       26.3384   27.3134    5.1796 C.2       1 UNK         0.0000 
   2871 C(8)       26.7793   25.8793    5.3006 C.3       1 UNK         0.0000 
   2872 H(1)       25.3071   29.7728    4.2122 H         1 UNK         0.0000 
   2873 H(2)       25.2898   32.2236    4.1963 H         1 UNK         0.0000 
   2874 H(3)       29.1494   32.2831    6.0762 H         1 UNK         0.0000 
   2875 H(4)       29.1621   29.8128    6.0906 H         1 UNK         0.0000 
   2876 H(5)       28.0193   34.1657    5.3025 H         1 UNK         0.0000 
   2877 H(6)       28.2552   27.8552    5.3956 H         1 UNK         0.0000 
   2878 H(7)       26.7010   25.4162    4.3514 H         1 UNK         0.0000 
   2879 H(8)       27.7761   25.7811    5.6446 H         1 UNK         0.0000 
   2880 H(9)       26.0988   25.3616    5.9254 H         1 UNK         0.0000 
   2881 O(1)       24.4028   41.9987    6.2473 O.3       1 UNK         0.0000 
   2882 O(2)       22.4050   40.7586   12.2913 O.2       1 UNK         0.0000 
   2883 N(1)       24.5861   40.7080   11.6604 N.am      1 UNK         0.0000 
   2884 C(1)       24.4866   41.0669   10.2975 C.ar      1 UNK         0.0000 
   2885 C(2)       23.4045   41.7528    9.7463 C.ar      1 UNK         0.0000 
   2886 C(3)       23.3975   42.0615    8.3892 C.ar      1 UNK         0.0000 
   2887 C(4)       24.4675   41.6989    7.5752 C.ar      1 UNK         0.0000 
   2888 C(5)       25.5631   41.0405    8.1323 C.ar      1 UNK         0.0000 
   2889 C(6)       25.5684   40.7276    9.4841 C.ar      1 UNK         0.0000 
   2890 C(7)       23.5953   40.5551   12.5539 C.2       1 UNK         0.0000 
   2891 C(8)       24.0362   40.1225   13.9266 C.3       1 UNK         0.0000 
   2892 H(1)       22.5640   42.0384   10.3666 H         1 UNK         0.0000 
   2893 H(2)       22.5466   42.5914    7.9789 H         1 UNK         0.0000 
   2894 H(3)       26.4063   40.7704    7.5086 H         1 UNK         0.0000 
   2895 H(4)       26.4190   40.2146    9.9156 H         1 UNK         0.0000 
   2896 H(5)       25.2762   41.9382    5.8415 H         1 UNK         0.0000 
   2897 H(6)       25.5121   40.4632   11.9779 H         1 UNK         0.0000 
   2898 H(7)       23.9579   40.9470   14.5866 H         1 UNK         0.0000 
   2899 H(8)       25.0330   39.7654   13.9469 H         1 UNK         0.0000 
   2900 H(9)       23.3557   39.3994   14.2946 H         1 UNK         0.0000 
   2901 O(1)       28.7563   30.6772    9.4321 O.3       1 UNK         0.0000 
   2902 O(2)       30.7541   36.8460    9.5479 O.2       1 UNK         0.0000 
   2903 N(1)       28.5729   36.2416    9.3602 N.am      1 UNK         0.0000 
   2904 C(1)       28.6724   34.8331    9.4114 C.ar      1 UNK         0.0000 
   2905 C(2)       29.7545   34.1449    9.9597 C.ar      1 UNK         0.0000 
   2906 C(3)       29.7616   32.7531    9.9633 C.ar      1 UNK         0.0000 
   2907 C(4)       28.6915   32.0385    9.4309 C.ar      1 UNK         0.0000 
   2908 C(5)       27.5959   32.7264    8.9107 C.ar      1 UNK         0.0000 
   2909 C(6)       27.5906   34.1140    8.9020 C.ar      1 UNK         0.0000 
   2910 C(7)       29.5637   37.1469    9.4070 C.2       1 UNK         0.0000 
   2911 C(8)       29.1228   38.5810    9.2860 C.3       1 UNK         0.0000 
   2912 H(1)       30.5951   34.6875   10.3744 H         1 UNK         0.0000 
   2913 H(2)       30.6124   32.2366   10.3903 H         1 UNK         0.0000 
   2914 H(3)       26.7528   32.1772    8.5104 H         1 UNK         0.0000 
   2915 H(4)       26.7400   34.6475    8.4961 H         1 UNK         0.0000 
   2916 H(5)       27.8828   30.2946    9.2841 H         1 UNK         0.0000 
   2917 H(6)       27.6470   36.6050    9.1910 H         1 UNK         0.0000 
   2918 H(7)       29.2011   39.0441   10.2352 H         1 UNK         0.0000 
   2919 H(8)       28.1261   38.6792    8.9420 H         1 UNK         0.0000 
   2920 H(9)       29.8033   39.0987    8.6612 H         1 UNK         0.0000 
   2921 O(1)       18.9362   42.8749   15.5017 O.3       1 UNK         0.0000 
   2922 O(2)       20.9340   44.1150    9.4577 O.2       1 UNK         0.0000 
   2923 N(1)       18.7528   44.1656   10.0886 N.am      1 UNK         0.0000 
   2924 C(1)       18.8523   43.8067   11.4515 C.ar      1 UNK         0.0000 
   2925 C(2)       19.9344   43.1208   12.0027 C.ar      1 UNK         0.0000 
   2926 C(3)       19.9415   42.8120   13.3599 C.ar      1 UNK         0.0000 
   2927 C(4)       18.8714   43.1747   14.1738 C.ar      1 UNK         0.0000 
   2928 C(5)       17.7758   43.8331   13.6167 C.ar      1 UNK         0.0000 
   2929 C(6)       17.7705   44.1460   12.2649 C.ar      1 UNK         0.0000 
   2930 C(7)       19.7436   44.3184    9.1951 C.2       1 UNK         0.0000 
   2931 C(8)       19.3027   44.7511    7.8224 C.3       1 UNK         0.0000 
   2932 H(1)       20.7750   42.8352   11.3824 H         1 UNK         0.0000 
   2933 H(2)       20.7923   42.2821   13.7701 H         1 UNK         0.0000 
   2934 H(3)       16.9327   44.1032   14.2404 H         1 UNK         0.0000 
   2935 H(4)       16.9199   44.6590   11.8334 H         1 UNK         0.0000 
   2936 H(5)       18.0627   42.9354   15.9075 H         1 UNK         0.0000 
   2937 H(6)       17.8269   44.4103    9.7711 H         1 UNK         0.0000 
   2938 H(7)       19.3810   43.9266    7.1624 H         1 UNK         0.0000 
   2939 H(8)       18.3060   45.1082    7.8021 H         1 UNK         0.0000 
   2940 H(9)       19.9832   45.4742    7.4544 H         1 UNK         0.0000 
   2941 O(1)       20.0689   39.5141   12.3169 O.3       1 UNK         0.0000 
   2942 O(2)       18.0711   33.3453   12.2011 O.2       1 UNK         0.0000 
   2943 N(1)       20.2522   33.9497   12.3888 N.am      1 UNK         0.0000 
   2944 C(1)       20.1527   35.3581   12.3376 C.ar      1 UNK         0.0000 
   2945 C(2)       19.0706   36.0463   11.7893 C.ar      1 UNK         0.0000 
   2946 C(3)       19.0636   37.4381   11.7858 C.ar      1 UNK         0.0000 
   2947 C(4)       20.1336   38.1527   12.3181 C.ar      1 UNK         0.0000 
   2948 C(5)       21.2292   37.4648   12.8383 C.ar      1 UNK         0.0000 
   2949 C(6)       21.2345   36.0773   12.8470 C.ar      1 UNK         0.0000 
   2950 C(7)       19.2614   33.0444   12.3420 C.2       1 UNK         0.0000 
   2951 C(8)       19.7023   31.6102   12.4630 C.3       1 UNK         0.0000 
   2952 H(1)       18.2301   35.5038   11.3746 H         1 UNK         0.0000 
   2953 H(2)       18.2128   37.9546   11.3587 H         1 UNK         0.0000 
   2954 H(3)       22.0724   38.0141   13.2386 H         1 UNK         0.0000 
   2955 H(4)       22.0851   35.5438   13.2530 H         1 UNK         0.0000 
   2956 H(5)       20.9423   39.8967   12.4649 H         1 UNK         0.0000 
   2957 H(6)       21.1782   33.5862   12.5580 H         1 UNK         0.0000 
   2958 H(7)       19.6240   31.1471   11.5138 H         1 UNK         0.0000 
   2959 H(8)       20.6991   31.5121   12.8070 H         1 UNK         0.0000 
   2960 H(9)       19.0218   31.0926   13.0878 H         1 UNK         0.0000 
   2961 O(1)       24.4028   47.7297   13.4097 O.3       1 UNK         0.0000 
   2962 O(2)       22.4050   46.4896   19.4537 O.2       1 UNK         0.0000 
   2963 N(1)       24.5861   46.4389   18.8228 N.am      1 UNK         0.0000 
   2964 C(1)       24.4866   46.7979   17.4599 C.ar      1 UNK         0.0000 
   2965 C(2)       23.4045   47.4837   16.9087 C.ar      1 UNK         0.0000 
   2966 C(3)       23.3975   47.7925   15.5516 C.ar      1 UNK         0.0000 
   2967 C(4)       24.4675   47.4298   14.7376 C.ar      1 UNK         0.0000 
   2968 C(5)       25.5631   46.7715   15.2947 C.ar      1 UNK         0.0000 
   2969 C(6)       25.5684   46.4586   16.6465 C.ar      1 UNK         0.0000 
   2970 C(7)       23.5953   46.2861   19.7163 C.2       1 UNK         0.0000 
   2971 C(8)       24.0362   45.8535   21.0890 C.3       1 UNK         0.0000 
   2972 H(1)       22.5640   47.7694   17.5290 H         1 UNK         0.0000 
   2973 H(2)       22.5466   48.3224   15.1413 H         1 UNK         0.0000 
   2974 H(3)       26.4063   46.5014   14.6710 H         1 UNK         0.0000 
   2975 H(4)       26.4190   45.9455   17.0780 H         1 UNK         0.0000 
   2976 H(5)       25.2762   47.6691   13.0039 H         1 UNK         0.0000 
   2977 H(6)       25.5121   46.1942   19.1403 H         1 UNK         0.0000 
   2978 H(7)       23.9579   46.6779   21.7490 H         1 UNK         0.0000 
   2979 H(8)       25.0330   45.4963   21.1093 H         1 UNK         0.0000 
   2980 H(9)       23.3557   45.1304   21.4570 H         1 UNK         0.0000 
   2981 O(1)       28.7563   36.4082   16.5945 O.3       1 UNK         0.0000 
   2982 O(2)       30.7541   42.5769   16.7103 O.2       1 UNK         0.0000 
   2983 N(1)       28.5729   41.9725   16.5226 N.am      1 UNK         0.0000 
   2984 C(1)       28.6724   40.5641   16.5738 C.ar      1 UNK         0.0000 
   2985 C(2)       29.7545   39.8759   17.1221 C.ar      1 UNK         0.0000 
   2986 C(3)       29.7616   38.4841   17.1257 C.ar      1 UNK         0.0000 
   2987 C(4)       28.6915   37.7695   16.5933 C.ar      1 UNK         0.0000 
   2988 C(5)       27.5959   38.4574   16.0731 C.ar      1 UNK         0.0000 
   2989 C(6)       27.5906   39.8449   16.0644 C.ar      1 UNK         0.0000 
   2990 C(7)       29.5637   42.8779   16.5694 C.2       1 UNK         0.0000 
   2991 C(8)       29.1228   44.3120   16.4484 C.3       1 UNK         0.0000 
   2992 H(1)       30.5951   40.4184   17.5368 H         1 UNK         0.0000 
   2993 H(2)       30.6124   37.9676   17.5527 H         1 UNK         0.0000 
   2994 H(3)       26.7528   37.9081   15.6728 H         1 UNK         0.0000 
   2995 H(4)       26.7400   40.3784   15.6585 H         1 UNK         0.0000 
   2996 H(5)       27.8828   36.0256   16.4465 H         1 UNK         0.0000 
   2997 H(6)       27.6470   42.3360   16.3534 H         1 UNK         0.0000 
   2998 H(7)       29.2011   44.7751   17.3976 H         1 UNK         0.0000 
   2999 H(8)       28.1261   44.4101   16.1044 H         1 UNK         0.0000 
   3000 H(9)       29.8033   44.8296   15.8236 H         1 UNK         0.0000 
   3001 O(1)       24.4224   33.9235   22.6641 O.3       1 UNK         0.0000 
   3002 O(2)       26.4202   35.1636   16.6201 O.2       1 UNK         0.0000 
   3003 N(1)       24.2390   35.2142   17.2510 N.am      1 UNK         0.0000 
   3004 C(1)       24.3385   34.8553   18.6139 C.ar      1 UNK         0.0000 
   3005 C(2)       25.4206   34.1694   19.1651 C.ar      1 UNK         0.0000 
   3006 C(3)       25.4277   33.8607   20.5223 C.ar      1 UNK         0.0000 
   3007 C(4)       24.3577   34.2233   21.3362 C.ar      1 UNK         0.0000 
   3008 C(5)       23.2620   34.8817   20.7791 C.ar      1 UNK         0.0000 
   3009 C(6)       23.2567   35.1946   19.4273 C.ar      1 UNK         0.0000 
   3010 C(7)       25.2298   35.3671   16.3575 C.2       1 UNK         0.0000 
   3011 C(8)       24.7890   35.7997   14.9848 C.3       1 UNK         0.0000 
   3012 H(1)       26.2612   33.8838   18.5448 H         1 UNK         0.0000 
   3013 H(2)       26.2785   33.3308   20.9325 H         1 UNK         0.0000 
   3014 H(3)       22.4189   35.1518   21.4028 H         1 UNK         0.0000 
   3015 H(4)       22.4061   35.7077   18.9958 H         1 UNK         0.0000 
   3016 H(5)       23.5489   33.9840   23.0699 H         1 UNK         0.0000 
   3017 H(6)       23.3131   35.4590   16.9335 H         1 UNK         0.0000 
   3018 H(7)       24.8672   34.9753   14.3248 H         1 UNK         0.0000 
   3019 H(8)       23.7922   36.1568   14.9645 H         1 UNK         0.0000 
   3020 H(9)       25.4694   36.5228   14.6168 H         1 UNK         0.0000 
   3021 O(1)       27.1459   45.2450   19.4793 O.3       1 UNK         0.0000 
   3022 O(2)       25.1481   39.0762   19.3635 O.2       1 UNK         0.0000 
   3023 N(1)       27.3292   39.6806   19.5512 N.am      1 UNK         0.0000 
   3024 C(1)       27.2297   41.0891   19.5000 C.ar      1 UNK         0.0000 
   3025 C(2)       26.1476   41.7773   18.9517 C.ar      1 UNK         0.0000 
   3026 C(3)       26.1406   43.1691   18.9482 C.ar      1 UNK         0.0000 
   3027 C(4)       27.2106   43.8837   19.4805 C.ar      1 UNK         0.0000 
   3028 C(5)       28.3062   43.1958   20.0007 C.ar      1 UNK         0.0000 
   3029 C(6)       28.3115   41.8082   20.0094 C.ar      1 UNK         0.0000 
   3030 C(7)       26.3384   38.7753   19.5044 C.2       1 UNK         0.0000 
   3031 C(8)       26.7793   37.3412   19.6254 C.3       1 UNK         0.0000 
   3032 H(1)       25.3071   41.2348   18.5370 H         1 UNK         0.0000 
   3033 H(2)       25.2898   43.6856   18.5211 H         1 UNK         0.0000 
   3034 H(3)       29.1494   43.7450   20.4010 H         1 UNK         0.0000 
   3035 H(4)       29.1621   41.2747   20.4154 H         1 UNK         0.0000 
   3036 H(5)       28.0193   45.6276   19.6273 H         1 UNK         0.0000 
   3037 H(6)       28.2552   39.3172   19.7204 H         1 UNK         0.0000 
   3038 H(7)       26.7010   36.8781   18.6762 H         1 UNK         0.0000 
   3039 H(8)       27.7761   37.2431   19.9694 H         1 UNK         0.0000 
   3040 H(9)       26.0988   36.8235   20.2502 H         1 UNK         0.0000 
   3041 O(1)       22.8120   38.7783   20.5721 O.3       1 UNK         0.0000 
   3042 O(2)       20.8142   37.5382   26.6161 O.2       1 UNK         0.0000 
   3043 N(1)       22.9953   37.4876   25.9852 N.am      1 UNK         0.0000 
   3044 C(1)       22.8959   37.8465   24.6223 C.ar      1 UNK         0.0000 
   3045 C(2)       21.8137   38.5324   24.0711 C.ar      1 UNK         0.0000 
   3046 C(3)       21.8067   38.8411   22.7140 C.ar      1 UNK         0.0000 
   3047 C(4)       22.8767   38.4785   21.9000 C.ar      1 UNK         0.0000 
   3048 C(5)       23.9723   37.8201   22.4571 C.ar      1 UNK         0.0000 
   3049 C(6)       23.9776   37.5072   23.8089 C.ar      1 UNK         0.0000 
   3050 C(7)       22.0045   37.3347   26.8787 C.2       1 UNK         0.0000 
   3051 C(8)       22.4454   36.9021   28.2514 C.3       1 UNK         0.0000 
   3052 H(1)       20.9732   38.8180   24.6914 H         1 UNK         0.0000 
   3053 H(2)       20.9559   39.3710   22.3037 H         1 UNK         0.0000 
   3054 H(3)       24.8155   37.5500   21.8334 H         1 UNK         0.0000 
   3055 H(4)       24.8282   36.9942   24.2404 H         1 UNK         0.0000 
   3056 H(5)       23.6854   38.7178   20.1663 H         1 UNK         0.0000 
   3057 H(6)       23.9213   37.2428   26.3027 H         1 UNK         0.0000 
   3058 H(7)       22.3671   37.7266   28.9114 H         1 UNK         0.0000 
   3059 H(8)       23.4422   36.5450   28.2717 H         1 UNK         0.0000 
   3060 H(9)       21.7649   36.1790   28.6194 H         1 UNK         0.0000 
   3061 O(1)       21.6793   42.1391   23.7569 O.3       1 UNK         0.0000 
   3062 O(2)       23.6771   48.3079   23.8727 O.2       1 UNK         0.0000 
   3063 N(1)       21.4959   47.7035   23.6850 N.am      1 UNK         0.0000 
   3064 C(1)       21.5954   46.2951   23.7362 C.ar      1 UNK         0.0000 
   3065 C(2)       22.6775   45.6068   24.2845 C.ar      1 UNK         0.0000 
   3066 C(3)       22.6846   44.2150   24.2881 C.ar      1 UNK         0.0000 
   3067 C(4)       21.6145   43.5004   23.7557 C.ar      1 UNK         0.0000 
   3068 C(5)       20.5189   44.1884   23.2355 C.ar      1 UNK         0.0000 
   3069 C(6)       20.5136   45.5759   23.2268 C.ar      1 UNK         0.0000 
   3070 C(7)       22.4867   48.6088   23.7318 C.2       1 UNK         0.0000 
   3071 C(8)       22.0459   50.0429   23.6108 C.3       1 UNK         0.0000 
   3072 H(1)       23.5181   46.1494   24.6992 H         1 UNK         0.0000 
   3073 H(2)       23.5354   43.6986   24.7151 H         1 UNK         0.0000 
   3074 H(3)       19.6758   43.6391   22.8352 H         1 UNK         0.0000 
   3075 H(4)       19.6630   46.1094   22.8209 H         1 UNK         0.0000 
   3076 H(5)       20.8058   41.7565   23.6089 H         1 UNK         0.0000 
   3077 H(6)       20.5700   48.0670   23.5158 H         1 UNK         0.0000 
   3078 H(7)       22.1241   50.5060   24.5600 H         1 UNK         0.0000 
   3079 H(8)       21.0491   50.1411   23.2668 H         1 UNK         0.0000 
   3080 H(9)       22.7263   50.5606   22.9860 H         1 UNK         0.0000 
   3081 O(1)       26.0132   37.1439    8.3393 O.3       1 UNK         0.0000 
   3082 O(2)       28.0110   38.3840    2.2953 O.2       1 UNK         0.0000 
   3083 N(1)       25.8298   38.4346    2.9262 N.am      1 UNK         0.0000 
   3084 C(1)       25.9293   38.0757    4.2891 C.ar      1 UNK         0.0000 
   3085 C(2)       27.0114   37.3898    4.8403 C.ar      1 UNK         0.0000 
   3086 C(3)       27.0185   37.0811    6.1975 C.ar      1 UNK         0.0000 
   3087 C(4)       25.9484   37.4437    7.0114 C.ar      1 UNK         0.0000 
   3088 C(5)       24.8528   38.1021    6.4543 C.ar      1 UNK         0.0000 
   3089 C(6)       24.8475   38.4150    5.1025 C.ar      1 UNK         0.0000 
   3090 C(7)       26.8206   38.5875    2.0327 C.2       1 UNK         0.0000 
   3091 C(8)       26.3797   39.0201    0.6600 C.3       1 UNK         0.0000 
   3092 H(1)       27.8520   37.1042    4.2200 H         1 UNK         0.0000 
   3093 H(2)       27.8693   36.5512    6.6077 H         1 UNK         0.0000 
   3094 H(3)       24.0097   38.3722    7.0780 H         1 UNK         0.0000 
   3095 H(4)       23.9969   38.9281    4.6710 H         1 UNK         0.0000 
   3096 H(5)       25.1397   37.2044    8.7451 H         1 UNK         0.0000 
   3097 H(6)       24.9039   38.6794    2.6087 H         1 UNK         0.0000 
   3098 H(7)       26.4580   38.1956    0.0000 H         1 UNK         0.0000 
   3099 H(8)       25.3830   39.3772    0.6397 H         1 UNK         0.0000 
   3100 H(9)       27.0602   39.7432    0.2920 H         1 UNK         0.0000 
   3101 O(1)       28.7367   48.4654    5.1545 O.3       1 UNK         0.0000 
   3102 O(2)       26.7388   42.2966    5.0387 O.2       1 UNK         0.0000 
   3103 N(1)       28.9200   42.9010    5.2264 N.am      1 UNK         0.0000 
   3104 C(1)       28.8205   44.3095    5.1752 C.ar      1 UNK         0.0000 
   3105 C(2)       27.7384   44.9977    4.6269 C.ar      1 UNK         0.0000 
   3106 C(3)       27.7313   46.3895    4.6234 C.ar      1 UNK         0.0000 
   3107 C(4)       28.8014   47.1041    5.1557 C.ar      1 UNK         0.0000 
   3108 C(5)       29.8970   46.4162    5.6759 C.ar      1 UNK         0.0000 
   3109 C(6)       29.9023   45.0286    5.6846 C.ar      1 UNK         0.0000 
   3110 C(7)       27.9292   41.9957    5.1796 C.2       1 UNK         0.0000 
   3111 C(8)       28.3701   40.5616    5.3006 C.3       1 UNK         0.0000 
   3112 H(1)       26.8978   44.4552    4.2122 H         1 UNK         0.0000 
   3113 H(2)       26.8805   46.9060    4.1963 H         1 UNK         0.0000 
   3114 H(3)       30.7401   46.9654    6.0762 H         1 UNK         0.0000 
   3115 H(4)       30.7529   44.4951    6.0906 H         1 UNK         0.0000 
   3116 H(5)       29.6101   48.8480    5.3025 H         1 UNK         0.0000 
   3117 H(6)       29.8460   42.5376    5.3956 H         1 UNK         0.0000 
   3118 H(7)       28.2918   40.0985    4.3514 H         1 UNK         0.0000 
   3119 H(8)       29.3668   40.4635    5.6446 H         1 UNK         0.0000 
   3120 H(9)       27.6896   40.0439    5.9254 H         1 UNK         0.0000 
   3121 O(1)       25.9936   56.6810    6.2473 O.3       1 UNK         0.0000 
   3122 O(2)       23.9957   55.4409   12.2913 O.2       1 UNK         0.0000 
   3123 N(1)       26.1769   55.3903   11.6604 N.am      1 UNK         0.0000 
   3124 C(1)       26.0774   55.7492   10.2975 C.ar      1 UNK         0.0000 
   3125 C(2)       24.9953   56.4351    9.7463 C.ar      1 UNK         0.0000 
   3126 C(3)       24.9882   56.7439    8.3892 C.ar      1 UNK         0.0000 
   3127 C(4)       26.0583   56.3812    7.5752 C.ar      1 UNK         0.0000 
   3128 C(5)       27.1539   55.7228    8.1323 C.ar      1 UNK         0.0000 
   3129 C(6)       27.1592   55.4100    9.4841 C.ar      1 UNK         0.0000 
   3130 C(7)       25.1861   55.2375   12.5539 C.2       1 UNK         0.0000 
   3131 C(8)       25.6270   54.8048   13.9266 C.3       1 UNK         0.0000 
   3132 H(1)       24.1547   56.7208   10.3666 H         1 UNK         0.0000 
   3133 H(2)       24.1374   57.2738    7.9789 H         1 UNK         0.0000 
   3134 H(3)       27.9970   55.4527    7.5086 H         1 UNK         0.0000 
   3135 H(4)       28.0098   54.8969    9.9156 H         1 UNK         0.0000 
   3136 H(5)       26.8670   56.6205    5.8415 H         1 UNK         0.0000 
   3137 H(6)       27.1028   55.1456   11.9779 H         1 UNK         0.0000 
   3138 H(7)       25.5487   55.6293   14.5866 H         1 UNK         0.0000 
   3139 H(8)       26.6237   54.4477   13.9469 H         1 UNK         0.0000 
   3140 H(9)       24.9465   54.0817   14.2946 H         1 UNK         0.0000 
   3141 O(1)       30.3470   45.3595    9.4321 O.3       1 UNK         0.0000 
   3142 O(2)       32.3449   51.5283    9.5479 O.2       1 UNK         0.0000 
   3143 N(1)       30.1637   50.9239    9.3602 N.am      1 UNK         0.0000 
   3144 C(1)       30.2632   49.5155    9.4114 C.ar      1 UNK         0.0000 
   3145 C(2)       31.3453   48.8272    9.9597 C.ar      1 UNK         0.0000 
   3146 C(3)       31.3524   47.4354    9.9633 C.ar      1 UNK         0.0000 
   3147 C(4)       30.2823   46.7208    9.4309 C.ar      1 UNK         0.0000 
   3148 C(5)       29.1867   47.4088    8.9107 C.ar      1 UNK         0.0000 
   3149 C(6)       29.1814   48.7963    8.9020 C.ar      1 UNK         0.0000 
   3150 C(7)       31.1545   51.8292    9.4070 C.2       1 UNK         0.0000 
   3151 C(8)       30.7136   53.2633    9.2860 C.3       1 UNK         0.0000 
   3152 H(1)       32.1859   49.3698   10.3744 H         1 UNK         0.0000 
   3153 H(2)       32.2032   46.9190   10.3903 H         1 UNK         0.0000 
   3154 H(3)       28.3436   46.8595    8.5104 H         1 UNK         0.0000 
   3155 H(4)       28.3308   49.3298    8.4961 H         1 UNK         0.0000 
   3156 H(5)       29.4736   44.9769    9.2841 H         1 UNK         0.0000 
   3157 H(6)       29.2377   51.2874    9.1910 H         1 UNK         0.0000 
   3158 H(7)       30.7919   53.7264   10.2352 H         1 UNK         0.0000 
   3159 H(8)       29.7169   53.3615    8.9420 H         1 UNK         0.0000 
   3160 H(9)       31.3941   53.7810    8.6612 H         1 UNK         0.0000 
   3161 O(1)       20.5269   57.5572   15.5017 O.3       1 UNK         0.0000 
   3162 O(2)       22.5248   58.7973    9.4577 O.2       1 UNK         0.0000 
   3163 N(1)       20.3436   58.8479   10.0886 N.am      1 UNK         0.0000 
   3164 C(1)       20.4431   58.4890   11.4515 C.ar      1 UNK         0.0000 
   3165 C(2)       21.5252   57.8031   12.0027 C.ar      1 UNK         0.0000 
   3166 C(3)       21.5322   57.4944   13.3599 C.ar      1 UNK         0.0000 
   3167 C(4)       20.4622   57.8570   14.1738 C.ar      1 UNK         0.0000 
   3168 C(5)       19.3666   58.5154   13.6167 C.ar      1 UNK         0.0000 
   3169 C(6)       19.3613   58.8283   12.2649 C.ar      1 UNK         0.0000 
   3170 C(7)       21.3344   59.0008    9.1951 C.2       1 UNK         0.0000 
   3171 C(8)       20.8935   59.4334    7.8224 C.3       1 UNK         0.0000 
   3172 H(1)       22.3658   57.5175   11.3824 H         1 UNK         0.0000 
   3173 H(2)       22.3831   56.9645   13.7701 H         1 UNK         0.0000 
   3174 H(3)       18.5234   58.7855   14.2404 H         1 UNK         0.0000 
   3175 H(4)       18.5107   59.3414   11.8334 H         1 UNK         0.0000 
   3176 H(5)       19.6535   57.6177   15.9075 H         1 UNK         0.0000 
   3177 H(6)       19.4176   59.0927    9.7711 H         1 UNK         0.0000 
   3178 H(7)       20.9718   58.6089    7.1624 H         1 UNK         0.0000 
   3179 H(8)       19.8967   59.7905    7.8021 H         1 UNK         0.0000 
   3180 H(9)       21.5740   60.1565    7.4544 H         1 UNK         0.0000 
   3181 O(1)       21.6597   54.1964   12.3169 O.3       1 UNK         0.0000 
   3182 O(2)       19.6618   48.0276   12.2011 O.2       1 UNK         0.0000 
   3183 N(1)       21.8430   48.6320   12.3888 N.am      1 UNK         0.0000 
   3184 C(1)       21.7435   50.0404   12.3376 C.ar      1 UNK         0.0000 
   3185 C(2)       20.6614   50.7287   11.7893 C.ar      1 UNK         0.0000 
   3186 C(3)       20.6543   52.1205   11.7858 C.ar      1 UNK         0.0000 
   3187 C(4)       21.7244   52.8351   12.3181 C.ar      1 UNK         0.0000 
   3188 C(5)       22.8200   52.1472   12.8383 C.ar      1 UNK         0.0000 
   3189 C(6)       22.8253   50.7596   12.8470 C.ar      1 UNK         0.0000 
   3190 C(7)       20.8522   47.7267   12.3420 C.2       1 UNK         0.0000 
   3191 C(8)       21.2931   46.2926   12.4630 C.3       1 UNK         0.0000 
   3192 H(1)       19.8208   50.1861   11.3746 H         1 UNK         0.0000 
   3193 H(2)       19.8035   52.6369   11.3587 H         1 UNK         0.0000 
   3194 H(3)       23.6631   52.6964   13.2386 H         1 UNK         0.0000 
   3195 H(4)       23.6759   50.2261   13.2530 H         1 UNK         0.0000 
   3196 H(5)       22.5331   54.5790   12.4649 H         1 UNK         0.0000 
   3197 H(6)       22.7690   48.2685   12.5580 H         1 UNK         0.0000 
   3198 H(7)       21.2148   45.8295   11.5138 H         1 UNK         0.0000 
   3199 H(8)       22.2898   46.1944   12.8070 H         1 UNK         0.0000 
   3200 H(9)       20.6126   45.7749   13.0878 H         1 UNK         0.0000 
   3201 O(1)       25.9936   62.4120   13.4097 O.3       1 UNK         0.0000 
   3202 O(2)       23.9957   61.1719   19.4537 O.2       1 UNK         0.0000 
   3203 N(1)       26.1769   61.1213   18.8228 N.am      1 UNK         0.0000 
   3204 C(1)       26.0774   61.4802   17.4599 C.ar      1 UNK         0.0000 
   3205 C(2)       24.9953   62.1661   16.9087 C.ar      1 UNK         0.0000 
   3206 C(3)       24.9882   62.4748   15.5516 C.ar      1 UNK         0.0000 
   3207 C(4)       26.0583   62.1122   14.7376 C.ar      1 UNK         0.0000 
   3208 C(5)       27.1539   61.4538   15.2947 C.ar      1 UNK         0.0000 
   3209 C(6)       27.1592   61.1409   16.6465 C.ar      1 UNK         0.0000 
   3210 C(7)       25.1861   60.9684   19.7163 C.2       1 UNK         0.0000 
   3211 C(8)       25.6270   60.5358   21.0890 C.3       1 UNK         0.0000 
   3212 H(1)       24.1547   62.4517   17.5290 H         1 UNK         0.0000 
   3213 H(2)       24.1374   63.0047   15.1413 H         1 UNK         0.0000 
   3214 H(3)       27.9970   61.1837   14.6710 H         1 UNK         0.0000 
   3215 H(4)       28.0098   60.6279   17.0780 H         1 UNK         0.0000 
   3216 H(5)       26.8670   62.3515   13.0039 H         1 UNK         0.0000 
   3217 H(6)       27.1028   60.8765   19.1403 H         1 UNK         0.0000 
   3218 H(7)       25.5487   61.3603   21.7490 H         1 UNK         0.0000 
   3219 H(8)       26.6237   60.1787   21.1093 H         1 UNK         0.0000 
   3220 H(9)       24.9465   59.8127   21.4570 H         1 UNK         0.0000 
   3221 O(1)       30.3470   51.0905   16.5945 O.3       1 UNK         0.0000 
   3222 O(2)       32.3449   57.2593   16.7103 O.2       1 UNK         0.0000 
   3223 N(1)       30.1637   56.6549   16.5226 N.am      1 UNK         0.0000 
   3224 C(1)       30.2632   55.2464   16.5738 C.ar      1 UNK         0.0000 
   3225 C(2)       31.3453   54.5582   17.1221 C.ar      1 UNK         0.0000 
   3226 C(3)       31.3524   53.1664   17.1257 C.ar      1 UNK         0.0000 
   3227 C(4)       30.2823   52.4518   16.5933 C.ar      1 UNK         0.0000 
   3228 C(5)       29.1867   53.1397   16.0731 C.ar      1 UNK         0.0000 
   3229 C(6)       29.1814   54.5273   16.0644 C.ar      1 UNK         0.0000 
   3230 C(7)       31.1545   57.5602   16.5694 C.2       1 UNK         0.0000 
   3231 C(8)       30.7136   58.9943   16.4484 C.3       1 UNK         0.0000 
   3232 H(1)       32.1859   55.1008   17.5368 H         1 UNK         0.0000 
   3233 H(2)       32.2032   52.6499   17.5527 H         1 UNK         0.0000 
   3234 H(3)       28.3436   52.5905   15.6728 H         1 UNK         0.0000 
   3235 H(4)       28.3308   55.0608   15.6585 H         1 UNK         0.0000 
   3236 H(5)       29.4736   50.7079   16.4465 H         1 UNK         0.0000 
   3237 H(6)       29.2377   57.0183   16.3534 H         1 UNK         0.0000 
   3238 H(7)       30.7919   59.4574   17.3976 H         1 UNK         0.0000 
   3239 H(8)       29.7169   59.0924   16.1044 H         1 UNK         0.0000 
   3240 H(9)       31.3941   59.5120   15.8236 H         1 UNK         0.0000 
   3241 O(1)       26.0132   48.6059   22.6641 O.3       1 UNK         0.0000 
   3242 O(2)       28.0110   49.8459   16.6201 O.2       1 UNK         0.0000 
   3243 N(1)       25.8298   49.8966   17.2510 N.am      1 UNK         0.0000 
   3244 C(1)       25.9293   49.5377   18.6139 C.ar      1 UNK         0.0000 
   3245 C(2)       27.0114   48.8518   19.1651 C.ar      1 UNK         0.0000 
   3246 C(3)       27.0185   48.5430   20.5223 C.ar      1 UNK         0.0000 
   3247 C(4)       25.9484   48.9057   21.3362 C.ar      1 UNK         0.0000 
   3248 C(5)       24.8528   49.5641   20.7791 C.ar      1 UNK         0.0000 
   3249 C(6)       24.8475   49.8769   19.4273 C.ar      1 UNK         0.0000 
   3250 C(7)       26.8206   50.0494   16.3575 C.2       1 UNK         0.0000 
   3251 C(8)       26.3797   50.4820   14.9848 C.3       1 UNK         0.0000 
   3252 H(1)       27.8520   48.5661   18.5448 H         1 UNK         0.0000 
   3253 H(2)       27.8693   48.0131   20.9325 H         1 UNK         0.0000 
   3254 H(3)       24.0097   49.8341   21.4028 H         1 UNK         0.0000 
   3255 H(4)       23.9969   50.3900   18.9958 H         1 UNK         0.0000 
   3256 H(5)       25.1397   48.6664   23.0699 H         1 UNK         0.0000 
   3257 H(6)       24.9039   50.1413   16.9335 H         1 UNK         0.0000 
   3258 H(7)       26.4580   49.6576   14.3248 H         1 UNK         0.0000 
   3259 H(8)       25.3830   50.8392   14.9645 H         1 UNK         0.0000 
   3260 H(9)       27.0602   51.2051   14.6168 H         1 UNK         0.0000 
   3261 O(1)       28.7367   59.9274   19.4793 O.3       1 UNK         0.0000 
   3262 O(2)       26.7388   53.7586   19.3635 O.2       1 UNK         0.0000 
   3263 N(1)       28.9200   54.3630   19.5512 N.am      1 UNK         0.0000 
   3264 C(1)       28.8205   55.7714   19.5000 C.ar      1 UNK         0.0000 
   3265 C(2)       27.7384   56.4596   18.9517 C.ar      1 UNK         0.0000 
   3266 C(3)       27.7313   57.8514   18.9482 C.ar      1 UNK         0.0000 
   3267 C(4)       28.8014   58.5660   19.4805 C.ar      1 UNK         0.0000 
   3268 C(5)       29.8970   57.8781   20.0007 C.ar      1 UNK         0.0000 
   3269 C(6)       29.9023   56.4906   20.0094 C.ar      1 UNK         0.0000 
   3270 C(7)       27.9292   53.4577   19.5044 C.2       1 UNK         0.0000 
   3271 C(8)       28.3701   52.0235   19.6254 C.3       1 UNK         0.0000 
   3272 H(1)       26.8978   55.9171   18.5370 H         1 UNK         0.0000 
   3273 H(2)       26.8805   58.3679   18.5211 H         1 UNK         0.0000 
   3274 H(3)       30.7401   58.4274   20.4010 H         1 UNK         0.0000 
   3275 H(4)       30.7529   55.9571   20.4154 H         1 UNK         0.0000 
   3276 H(5)       29.6101   60.3100   19.6273 H         1 UNK         0.0000 
   3277 H(6)       29.8460   53.9995   19.7204 H         1 UNK         0.0000 
   3278 H(7)       28.2918   51.5604   18.6762 H         1 UNK         0.0000 
   3279 H(8)       29.3668   51.9254   19.9694 H         1 UNK         0.0000 
   3280 H(9)       27.6896   51.5059   20.2502 H         1 UNK         0.0000 
   3281 O(1)       24.4028   53.4606   20.5721 O.3       1 UNK         0.0000 
   3282 O(2)       22.4050   52.2205   26.6161 O.2       1 UNK         0.0000 
   3283 N(1)       24.5861   52.1699   25.9852 N.am      1 UNK         0.0000 
   3284 C(1)       24.4866   52.5288   24.6223 C.ar      1 UNK         0.0000 
   3285 C(2)       23.4045   53.2147   24.0711 C.ar      1 UNK         0.0000 
   3286 C(3)       23.3975   53.5235   22.7140 C.ar      1 UNK         0.0000 
   3287 C(4)       24.4675   53.1608   21.9000 C.ar      1 UNK         0.0000 
   3288 C(5)       25.5631   52.5024   22.4571 C.ar      1 UNK         0.0000 
   3289 C(6)       25.5684   52.1896   23.8089 C.ar      1 UNK         0.0000 
   3290 C(7)       23.5953   52.0171   26.8787 C.2       1 UNK         0.0000 
   3291 C(8)       24.0362   51.5844   28.2514 C.3       1 UNK         0.0000 
   3292 H(1)       22.5640   53.5004   24.6914 H         1 UNK         0.0000 
   3293 H(2)       22.5466   54.0534   22.3037 H         1 UNK         0.0000 
   3294 H(3)       26.4063   52.2323   21.8334 H         1 UNK         0.0000 
   3295 H(4)       26.4190   51.6765   24.2404 H         1 UNK         0.0000 
   3296 H(5)       25.2762   53.4001   20.1663 H         1 UNK         0.0000 
   3297 H(6)       25.5121   51.9252   26.3027 H         1 UNK         0.0000 
   3298 H(7)       23.9579   52.4089   28.9114 H         1 UNK         0.0000 
   3299 H(8)       25.0330   51.2273   28.2717 H         1 UNK         0.0000 
   3300 H(9)       23.3557   50.8613   28.6194 H         1 UNK         0.0000 
   3301 O(1)       23.2700   56.8215   23.7569 O.3       1 UNK         0.0000 
   3302 O(2)       25.2679   62.9902   23.8727 O.2       1 UNK         0.0000 
   3303 N(1)       23.0867   62.3858   23.6850 N.am      1 UNK         0.0000 
   3304 C(1)       23.1862   60.9774   23.7362 C.ar      1 UNK         0.0000 
   3305 C(2)       24.2683   60.2892   24.2845 C.ar      1 UNK         0.0000 
   3306 C(3)       24.2754   58.8974   24.2881 C.ar      1 UNK         0.0000 
   3307 C(4)       23.2053   58.1828   23.7557 C.ar      1 UNK         0.0000 
   3308 C(5)       22.1097   58.8707   23.2355 C.ar      1 UNK         0.0000 
   3309 C(6)       22.1044   60.2582   23.2268 C.ar      1 UNK         0.0000 
   3310 C(7)       24.0775   63.2911   23.7318 C.2       1 UNK         0.0000 
   3311 C(8)       23.6366   64.7253   23.6108 C.3       1 UNK         0.0000 
   3312 H(1)       25.1089   60.8317   24.6992 H         1 UNK         0.0000 
   3313 H(2)       25.1262   58.3809   24.7151 H         1 UNK         0.0000 
   3314 H(3)       21.2666   58.3214   22.8352 H         1 UNK         0.0000 
   3315 H(4)       21.2538   60.7917   22.8209 H         1 UNK         0.0000 
   3316 H(5)       22.3966   56.4389   23.6089 H         1 UNK         0.0000 
   3317 H(6)       22.1607   62.7493   23.5158 H         1 UNK         0.0000 
   3318 H(7)       23.7149   65.1884   24.5600 H         1 UNK         0.0000 
   3319 H(8)       22.6399   64.8234   23.2668 H         1 UNK         0.0000 
   3320 H(9)       24.3171   65.2429   22.9860 H         1 UNK         0.0000 
   3321 O(1)       27.6039   51.8263    8.3393 O.3       1 UNK         0.0000 
   3322 O(2)       29.6017   53.0663    2.2953 O.2       1 UNK         0.0000 
   3323 N(1)       27.4206   53.1170    2.9262 N.am      1 UNK         0.0000 
   3324 C(1)       27.5201   52.7581    4.2891 C.ar      1 UNK         0.0000 
   3325 C(2)       28.6022   52.0722    4.8403 C.ar      1 UNK         0.0000 
   3326 C(3)       28.6092   51.7634    6.1975 C.ar      1 UNK         0.0000 
   3327 C(4)       27.5392   52.1261    7.0114 C.ar      1 UNK         0.0000 
   3328 C(5)       26.4436   52.7845    6.4543 C.ar      1 UNK         0.0000 
   3329 C(6)       26.4383   53.0973    5.1025 C.ar      1 UNK         0.0000 
   3330 C(7)       28.4114   53.2698    2.0327 C.2       1 UNK         0.0000 
   3331 C(8)       27.9705   53.7024    0.6600 C.3       1 UNK         0.0000 
   3332 H(1)       29.4428   51.7865    4.2200 H         1 UNK         0.0000 
   3333 H(2)       29.4601   51.2335    6.6077 H         1 UNK         0.0000 
   3334 H(3)       25.6004   53.0545    7.0780 H         1 UNK         0.0000 
   3335 H(4)       25.5877   53.6104    4.6710 H         1 UNK         0.0000 
   3336 H(5)       26.7305   51.8868    8.7451 H         1 UNK         0.0000 
   3337 H(6)       26.4946   53.3617    2.6087 H         1 UNK         0.0000 
   3338 H(7)       28.0488   52.8780    0.0000 H         1 UNK         0.0000 
   3339 H(8)       26.9737   54.0596    0.6397 H         1 UNK         0.0000 
   3340 H(9)       28.6510   54.4255    0.2920 H         1 UNK         0.0000 
   3341 O(1)       30.3274   63.1478    5.1545 O.3       1 UNK         0.0000 
   3342 O(2)       28.3296   56.9790    5.0387 O.2       1 UNK         0.0000 
   3343 N(1)       30.5108   57.5834    5.2264 N.am      1 UNK         0.0000 
   3344 C(1)       30.4113   58.9918    5.1752 C.ar      1 UNK         0.0000 
   3345 C(2)       29.3292   59.6800    4.6269 C.ar      1 UNK         0.0000 
   3346 C(3)       29.3221   61.0718    4.6234 C.ar      1 UNK         0.0000 
   3347 C(4)       30.3922   61.7864    5.1557 C.ar      1 UNK         0.0000 
   3348 C(5)       31.4878   61.0985    5.6759 C.ar      1 UNK         0.0000 
   3349 C(6)       31.4931   59.7110    5.6846 C.ar      1 UNK         0.0000 
   3350 C(7)       29.5200   56.6781    5.1796 C.2       1 UNK         0.0000 
   3351 C(8)       29.9609   55.2439    5.3006 C.3       1 UNK         0.0000 
   3352 H(1)       28.4886   59.1375    4.2122 H         1 UNK         0.0000 
   3353 H(2)       28.4713   61.5883    4.1963 H         1 UNK         0.0000 
   3354 H(3)       32.3309   61.6478    6.0762 H         1 UNK         0.0000 
   3355 H(4)       32.3437   59.1775    6.0906 H         1 UNK         0.0000 
   3356 H(5)       31.2009   63.5304    5.3025 H         1 UNK         0.0000 
   3357 H(6)       31.4367   57.2199    5.3956 H         1 UNK         0.0000 
   3358 H(7)       29.8826   54.7808    4.3514 H         1 UNK         0.0000 
   3359 H(8)       30.9576   55.1458    5.6446 H         1 UNK         0.0000 
   3360 H(9)       29.2804   54.7263    5.9254 H         1 UNK         0.0000 
   3361 O(1)       27.5843   71.3634    6.2473 O.3       1 UNK         0.0000 
   3362 O(2)       25.5865   70.1233   12.2913 O.2       1 UNK         0.0000 
   3363 N(1)       27.7677   70.0726   11.6604 N.am      1 UNK         0.0000 
   3364 C(1)       27.6682   70.4316   10.2975 C.ar      1 UNK         0.0000 
   3365 C(2)       26.5861   71.1174    9.7463 C.ar      1 UNK         0.0000 
   3366 C(3)       26.5790   71.4262    8.3892 C.ar      1 UNK         0.0000 
   3367 C(4)       27.6490   71.0635    7.5752 C.ar      1 UNK         0.0000 
   3368 C(5)       28.7447   70.4052    8.1323 C.ar      1 UNK         0.0000 
   3369 C(6)       28.7500   70.0923    9.4841 C.ar      1 UNK         0.0000 
   3370 C(7)       26.7769   69.9198   12.5539 C.2       1 UNK         0.0000 
   3371 C(8)       27.2177   69.4872   13.9266 C.3       1 UNK         0.0000 
   3372 H(1)       25.7455   71.4031   10.3666 H         1 UNK         0.0000 
   3373 H(2)       25.7282   71.9561    7.9789 H         1 UNK         0.0000 
   3374 H(3)       29.5878   70.1351    7.5086 H         1 UNK         0.0000 
   3375 H(4)       29.6006   69.5792    9.9156 H         1 UNK         0.0000 
   3376 H(5)       28.4578   71.3028    5.8415 H         1 UNK         0.0000 
   3377 H(6)       28.6936   69.8279   11.9779 H         1 UNK         0.0000 
   3378 H(7)       27.1395   70.3116   14.5866 H         1 UNK         0.0000 
   3379 H(8)       28.2145   69.1300   13.9469 H         1 UNK         0.0000 
   3380 H(9)       26.5373   68.7641   14.2946 H         1 UNK         0.0000 
   3381 O(1)       31.9378   60.0419    9.4321 O.3       1 UNK         0.0000 
   3382 O(2)       33.9356   66.2106    9.5479 O.2       1 UNK         0.0000 
   3383 N(1)       31.7545   65.6062    9.3602 N.am      1 UNK         0.0000 
   3384 C(1)       31.8540   64.1978    9.4114 C.ar      1 UNK         0.0000 
   3385 C(2)       32.9361   63.5096    9.9597 C.ar      1 UNK         0.0000 
   3386 C(3)       32.9431   62.1178    9.9633 C.ar      1 UNK         0.0000 
   3387 C(4)       31.8731   61.4032    9.4309 C.ar      1 UNK         0.0000 
   3388 C(5)       30.7775   62.0911    8.9107 C.ar      1 UNK         0.0000 
   3389 C(6)       30.7722   63.4786    8.9020 C.ar      1 UNK         0.0000 
   3390 C(7)       32.7453   66.5115    9.4070 C.2       1 UNK         0.0000 
   3391 C(8)       32.3044   67.9457    9.2860 C.3       1 UNK         0.0000 
   3392 H(1)       33.7766   64.0521   10.3744 H         1 UNK         0.0000 
   3393 H(2)       33.7940   61.6013   10.3903 H         1 UNK         0.0000 
   3394 H(3)       29.9343   61.5418    8.5104 H         1 UNK         0.0000 
   3395 H(4)       29.9216   64.0121    8.4961 H         1 UNK         0.0000 
   3396 H(5)       31.0644   59.6593    9.2841 H         1 UNK         0.0000 
   3397 H(6)       30.8285   65.9697    9.1910 H         1 UNK         0.0000 
   3398 H(7)       32.3827   68.4088   10.2352 H         1 UNK         0.0000 
   3399 H(8)       31.3076   68.0438    8.9420 H         1 UNK         0.0000 
   3400 H(9)       32.9849   68.4633    8.6612 H         1 UNK         0.0000 
   3401 O(1)       22.1177   72.2396   15.5017 O.3       1 UNK         0.0000 
   3402 O(2)       24.1155   73.4796    9.4577 O.2       1 UNK         0.0000 
   3403 N(1)       21.9344   73.5303   10.0886 N.am      1 UNK         0.0000 
   3404 C(1)       22.0338   73.1714   11.4515 C.ar      1 UNK         0.0000 
   3405 C(2)       23.1160   72.4855   12.0027 C.ar      1 UNK         0.0000 
   3406 C(3)       23.1230   72.1767   13.3599 C.ar      1 UNK         0.0000 
   3407 C(4)       22.0530   72.5394   14.1738 C.ar      1 UNK         0.0000 
   3408 C(5)       20.9574   73.1977   13.6167 C.ar      1 UNK         0.0000 
   3409 C(6)       20.9521   73.5106   12.2649 C.ar      1 UNK         0.0000 
   3410 C(7)       22.9252   73.6831    9.1951 C.2       1 UNK         0.0000 
   3411 C(8)       22.4843   74.1157    7.8224 C.3       1 UNK         0.0000 
   3412 H(1)       23.9565   72.1998   11.3824 H         1 UNK         0.0000 
   3413 H(2)       23.9738   71.6468   13.7701 H         1 UNK         0.0000 
   3414 H(3)       20.1142   73.4678   14.2404 H         1 UNK         0.0000 
   3415 H(4)       20.1015   74.0237   11.8334 H         1 UNK         0.0000 
   3416 H(5)       21.2443   72.3001   15.9075 H         1 UNK         0.0000 
   3417 H(6)       21.0084   73.7750    9.7711 H         1 UNK         0.0000 
   3418 H(7)       22.5626   73.2913    7.1624 H         1 UNK         0.0000 
   3419 H(8)       21.4875   74.4729    7.8021 H         1 UNK         0.0000 
   3420 H(9)       23.1648   74.8388    7.4544 H         1 UNK         0.0000 
   3421 O(1)       23.2504   68.8787   12.3169 O.3       1 UNK         0.0000 
   3422 O(2)       21.2526   62.7099   12.2011 O.2       1 UNK         0.0000 
   3423 N(1)       23.4338   63.3143   12.3888 N.am      1 UNK         0.0000 
   3424 C(1)       23.3343   64.7228   12.3376 C.ar      1 UNK         0.0000 
   3425 C(2)       22.2522   65.4110   11.7893 C.ar      1 UNK         0.0000 
   3426 C(3)       22.2451   66.8028   11.7858 C.ar      1 UNK         0.0000 
   3427 C(4)       23.3152   67.5174   12.3181 C.ar      1 UNK         0.0000 
   3428 C(5)       24.4108   66.8295   12.8383 C.ar      1 UNK         0.0000 
   3429 C(6)       24.4161   65.4419   12.8470 C.ar      1 UNK         0.0000 
   3430 C(7)       22.4430   62.4090   12.3420 C.2       1 UNK         0.0000 
   3431 C(8)       22.8839   60.9749   12.4630 C.3       1 UNK         0.0000 
   3432 H(1)       21.4116   64.8685   11.3746 H         1 UNK         0.0000 
   3433 H(2)       21.3943   67.3193   11.3587 H         1 UNK         0.0000 
   3434 H(3)       25.2539   67.3787   13.2386 H         1 UNK         0.0000 
   3435 H(4)       25.2667   64.9084   13.2530 H         1 UNK         0.0000 
   3436 H(5)       24.1239   69.2613   12.4649 H         1 UNK         0.0000 
   3437 H(6)       24.3597   62.9509   12.5580 H         1 UNK         0.0000 
   3438 H(7)       22.8056   60.5118   11.5138 H         1 UNK         0.0000 
   3439 H(8)       23.8806   60.8768   12.8070 H         1 UNK         0.0000 
   3440 H(9)       22.2034   60.4572   13.0878 H         1 UNK         0.0000 
   3441 O(1)       27.5843   77.0943   13.4097 O.3       1 UNK         0.0000 
   3442 O(2)       25.5865   75.8542   19.4537 O.2       1 UNK         0.0000 
   3443 N(1)       27.7677   75.8036   18.8228 N.am      1 UNK         0.0000 
   3444 C(1)       27.6682   76.1625   17.4599 C.ar      1 UNK         0.0000 
   3445 C(2)       26.5861   76.8484   16.9087 C.ar      1 UNK         0.0000 
   3446 C(3)       26.5790   77.1572   15.5516 C.ar      1 UNK         0.0000 
   3447 C(4)       27.6490   76.7945   14.7376 C.ar      1 UNK         0.0000 
   3448 C(5)       28.7447   76.1361   15.2947 C.ar      1 UNK         0.0000 
   3449 C(6)       28.7500   75.8232   16.6465 C.ar      1 UNK         0.0000 
   3450 C(7)       26.7769   75.6508   19.7163 C.2       1 UNK         0.0000 
   3451 C(8)       27.2177   75.2181   21.0890 C.3       1 UNK         0.0000 
   3452 H(1)       25.7455   77.1341   17.5290 H         1 UNK         0.0000 
   3453 H(2)       25.7282   77.6871   15.1413 H         1 UNK         0.0000 
   3454 H(3)       29.5878   75.8660   14.6710 H         1 UNK         0.0000 
   3455 H(4)       29.6006   75.3102   17.0780 H         1 UNK         0.0000 
   3456 H(5)       28.4578   77.0338   13.0039 H         1 UNK         0.0000 
   3457 H(6)       28.6936   75.5589   19.1403 H         1 UNK         0.0000 
   3458 H(7)       27.1395   76.0426   21.7490 H         1 UNK         0.0000 
   3459 H(8)       28.2145   74.8610   21.1093 H         1 UNK         0.0000 
   3460 H(9)       26.5373   74.4950   21.4570 H         1 UNK         0.0000 
   3461 O(1)       31.9378   65.7728   16.5945 O.3       1 UNK         0.0000 
   3462 O(2)       33.9356   71.9416   16.7103 O.2       1 UNK         0.0000 
   3463 N(1)       31.7545   71.3372   16.5226 N.am      1 UNK         0.0000 
   3464 C(1)       31.8540   69.9288   16.5738 C.ar      1 UNK         0.0000 
   3465 C(2)       32.9361   69.2405   17.1221 C.ar      1 UNK         0.0000 
   3466 C(3)       32.9431   67.8487   17.1257 C.ar      1 UNK         0.0000 
   3467 C(4)       31.8731   67.1341   16.5933 C.ar      1 UNK         0.0000 
   3468 C(5)       30.7775   67.8221   16.0731 C.ar      1 UNK         0.0000 
   3469 C(6)       30.7722   69.2096   16.0644 C.ar      1 UNK         0.0000 
   3470 C(7)       32.7453   72.2425   16.5694 C.2       1 UNK         0.0000 
   3471 C(8)       32.3044   73.6766   16.4484 C.3       1 UNK         0.0000 
   3472 H(1)       33.7766   69.7831   17.5368 H         1 UNK         0.0000 
   3473 H(2)       33.7940   67.3323   17.5527 H         1 UNK         0.0000 
   3474 H(3)       29.9343   67.2728   15.6728 H         1 UNK         0.0000 
   3475 H(4)       29.9216   69.7431   15.6585 H         1 UNK         0.0000 
   3476 H(5)       31.0644   65.3902   16.4465 H         1 UNK         0.0000 
   3477 H(6)       30.8285   71.7007   16.3534 H         1 UNK         0.0000 
   3478 H(7)       32.3827   74.1397   17.3976 H         1 UNK         0.0000 
   3479 H(8)       31.3076   73.7748   16.1044 H         1 UNK         0.0000 
   3480 H(9)       32.9849   74.1943   15.8236 H         1 UNK         0.0000 
   3481 O(1)       27.6039   63.2882   22.6641 O.3       1 UNK         0.0000 
   3482 O(2)       29.6017   64.5283   16.6201 O.2       1 UNK         0.0000 
   3483 N(1)       27.4206   64.5789   17.2510 N.am      1 UNK         0.0000 
   3484 C(1)       27.5201   64.2200   18.6139 C.ar      1 UNK         0.0000 
   3485 C(2)       28.6022   63.5341   19.1651 C.ar      1 UNK         0.0000 
   3486 C(3)       28.6092   63.2253   20.5223 C.ar      1 UNK         0.0000 
   3487 C(4)       27.5392   63.5880   21.3362 C.ar      1 UNK         0.0000 
   3488 C(5)       26.4436   64.2464   20.7791 C.ar      1 UNK         0.0000 
   3489 C(6)       26.4383   64.5593   19.4273 C.ar      1 UNK         0.0000 
   3490 C(7)       28.4114   64.7317   16.3575 C.2       1 UNK         0.0000 
   3491 C(8)       27.9705   65.1644   14.9848 C.3       1 UNK         0.0000 
   3492 H(1)       29.4428   63.2484   18.5448 H         1 UNK         0.0000 
   3493 H(2)       29.4601   62.6954   20.9325 H         1 UNK         0.0000 
   3494 H(3)       25.6004   64.5165   21.4028 H         1 UNK         0.0000 
   3495 H(4)       25.5877   65.0723   18.9958 H         1 UNK         0.0000 
   3496 H(5)       26.7305   63.3487   23.0699 H         1 UNK         0.0000 
   3497 H(6)       26.4946   64.8236   16.9335 H         1 UNK         0.0000 
   3498 H(7)       28.0488   64.3399   14.3248 H         1 UNK         0.0000 
   3499 H(8)       26.9737   65.5215   14.9645 H         1 UNK         0.0000 
   3500 H(9)       28.6510   65.8875   14.6168 H         1 UNK         0.0000 
   3501 O(1)       30.3274   74.6097   19.4793 O.3       1 UNK         0.0000 
   3502 O(2)       28.3296   68.4409   19.3635 O.2       1 UNK         0.0000 
   3503 N(1)       30.5108   69.0453   19.5512 N.am      1 UNK         0.0000 
   3504 C(1)       30.4113   70.4537   19.5000 C.ar      1 UNK         0.0000 
   3505 C(2)       29.3292   71.1420   18.9517 C.ar      1 UNK         0.0000 
   3506 C(3)       29.3221   72.5338   18.9482 C.ar      1 UNK         0.0000 
   3507 C(4)       30.3922   73.2484   19.4805 C.ar      1 UNK         0.0000 
   3508 C(5)       31.4878   72.5605   20.0007 C.ar      1 UNK         0.0000 
   3509 C(6)       31.4931   71.1729   20.0094 C.ar      1 UNK         0.0000 
   3510 C(7)       29.5200   68.1400   19.5044 C.2       1 UNK         0.0000 
   3511 C(8)       29.9609   66.7059   19.6254 C.3       1 UNK         0.0000 
   3512 H(1)       28.4886   70.5994   18.5370 H         1 UNK         0.0000 
   3513 H(2)       28.4713   73.0502   18.5211 H         1 UNK         0.0000 
   3514 H(3)       32.3309   73.1097   20.4010 H         1 UNK         0.0000 
   3515 H(4)       32.3437   70.6394   20.4154 H         1 UNK         0.0000 
   3516 H(5)       31.2009   74.9923   19.6273 H         1 UNK         0.0000 
   3517 H(6)       31.4367   68.6818   19.7204 H         1 UNK         0.0000 
   3518 H(7)       29.8826   66.2428   18.6762 H         1 UNK         0.0000 
   3519 H(8)       30.9576   66.6077   19.9694 H         1 UNK         0.0000 
   3520 H(9)       29.2804   66.1882   20.2502 H         1 UNK         0.0000 
   3521 O(1)       25.9936   68.1430   20.5721 O.3       1 UNK         0.0000 
   3522 O(2)       23.9957   66.9029   26.6161 O.2       1 UNK         0.0000 
   3523 N(1)       26.1769   66.8522   25.9852 N.am      1 UNK         0.0000 
   3524 C(1)       26.0774   67.2112   24.6223 C.ar      1 UNK         0.0000 
   3525 C(2)       24.9953   67.8970   24.0711 C.ar      1 UNK         0.0000 
   3526 C(3)       24.9882   68.2058   22.7140 C.ar      1 UNK         0.0000 
   3527 C(4)       26.0583   67.8431   21.9000 C.ar      1 UNK         0.0000 
   3528 C(5)       27.1539   67.1848   22.4571 C.ar      1 UNK         0.0000 
   3529 C(6)       27.1592   66.8719   23.8089 C.ar      1 UNK         0.0000 
   3530 C(7)       25.1861   66.6994   26.8787 C.2       1 UNK         0.0000 
   3531 C(8)       25.6270   66.2668   28.2514 C.3       1 UNK         0.0000 
   3532 H(1)       24.1547   68.1827   24.6914 H         1 UNK         0.0000 
   3533 H(2)       24.1374   68.7357   22.3037 H         1 UNK         0.0000 
   3534 H(3)       27.9970   66.9147   21.8334 H         1 UNK         0.0000 
   3535 H(4)       28.0098   66.3588   24.2404 H         1 UNK         0.0000 
   3536 H(5)       26.8670   68.0824   20.1663 H         1 UNK         0.0000 
   3537 H(6)       27.1028   66.6075   26.3027 H         1 UNK         0.0000 
   3538 H(7)       25.5487   67.0912   28.9114 H         1 UNK         0.0000 
   3539 H(8)       26.6237   65.9096   28.2717 H         1 UNK         0.0000 
   3540 H(9)       24.9465   65.5437   28.6194 H         1 UNK         0.0000 
   3541 O(1)       24.8608   71.5038   23.7569 O.3       1 UNK         0.0000 
   3542 O(2)       26.8586   77.6726   23.8727 O.2       1 UNK         0.0000 
   3543 N(1)       24.6775   77.0682   23.6850 N.am      1 UNK         0.0000 
   3544 C(1)       24.7770   75.6597   23.7362 C.ar      1 UNK         0.0000 
   3545 C(2)       25.8591   74.9715   24.2845 C.ar      1 UNK         0.0000 
   3546 C(3)       25.8661   73.5797   24.2881 C.ar      1 UNK         0.0000 
   3547 C(4)       24.7961   72.8651   23.7557 C.ar      1 UNK         0.0000 
   3548 C(5)       23.7005   73.5530   23.2355 C.ar      1 UNK         0.0000 
   3549 C(6)       23.6952   74.9406   23.2268 C.ar      1 UNK         0.0000 
   3550 C(7)       25.6683   77.9735   23.7318 C.2       1 UNK         0.0000 
   3551 C(8)       25.2274   79.4076   23.6108 C.3       1 UNK         0.0000 
   3552 H(1)       26.6996   75.5140   24.6992 H         1 UNK         0.0000 
   3553 H(2)       26.7170   73.0632   24.7151 H         1 UNK         0.0000 
   3554 H(3)       22.8573   73.0038   22.8352 H         1 UNK         0.0000 
   3555 H(4)       22.8446   75.4741   22.8209 H         1 UNK         0.0000 
   3556 H(5)       23.9874   71.1212   23.6089 H         1 UNK         0.0000 
   3557 H(6)       23.7515   77.4316   23.5158 H         1 UNK         0.0000 
   3558 H(7)       25.3057   79.8707   24.5600 H         1 UNK         0.0000 
   3559 H(8)       24.2306   79.5057   23.2668 H         1 UNK         0.0000 
   3560 H(9)       25.9079   79.9253   22.9860 H         1 UNK         0.0000 
   3561 O(1)       29.1947   66.5086    8.3393 O.3       1 UNK         0.0000 
   3562 O(2)       31.1925   67.7487    2.2953 O.2       1 UNK         0.0000 
   3563 N(1)       29.0114   67.7993    2.9262 N.am      1 UNK         0.0000 
   3564 C(1)       29.1108   67.4404    4.2891 C.ar      1 UNK         0.0000 
   3565 C(2)       30.1930   66.7545    4.8403 C.ar      1 UNK         0.0000 
   3566 C(3)       30.2000   66.4457    6.1975 C.ar      1 UNK         0.0000 
   3567 C(4)       29.1300   66.8084    7.0114 C.ar      1 UNK         0.0000 
   3568 C(5)       28.0344   67.4668    6.4543 C.ar      1 UNK         0.0000 
   3569 C(6)       28.0291   67.7797    5.1025 C.ar      1 UNK         0.0000 
   3570 C(7)       30.0022   67.9521    2.0327 C.2       1 UNK         0.0000 
   3571 C(8)       29.5613   68.3848    0.6600 C.3       1 UNK         0.0000 
   3572 H(1)       31.0335   66.4688    4.2200 H         1 UNK         0.0000 
   3573 H(2)       31.0508   65.9158    6.6077 H         1 UNK         0.0000 
   3574 H(3)       27.1912   67.7369    7.0780 H         1 UNK         0.0000 
   3575 H(4)       27.1785   68.2927    4.6710 H         1 UNK         0.0000 
   3576 H(5)       28.3213   66.5691    8.7451 H         1 UNK         0.0000 
   3577 H(6)       28.0854   68.0440    2.6087 H         1 UNK         0.0000 
   3578 H(7)       29.6396   67.5603    0.0000 H         1 UNK         0.0000 
   3579 H(8)       28.5645   68.7419    0.6397 H         1 UNK         0.0000 
   3580 H(9)       30.2418   69.1079    0.2920 H         1 UNK         0.0000 
   3581 O(1)       31.9182   77.8301    5.1545 O.3       1 UNK         0.0000 
   3582 O(2)       29.9204   71.6613    5.0387 O.2       1 UNK         0.0000 
   3583 N(1)       32.1016   72.2657    5.2264 N.am      1 UNK         0.0000 
   3584 C(1)       32.0021   73.6741    5.1752 C.ar      1 UNK         0.0000 
   3585 C(2)       30.9199   74.3624    4.6269 C.ar      1 UNK         0.0000 
   3586 C(3)       30.9129   75.7542    4.6234 C.ar      1 UNK         0.0000 
   3587 C(4)       31.9829   76.4688    5.1557 C.ar      1 UNK         0.0000 
   3588 C(5)       33.0785   75.7809    5.6759 C.ar      1 UNK         0.0000 
   3589 C(6)       33.0839   74.3933    5.6846 C.ar      1 UNK         0.0000 
   3590 C(7)       31.1108   71.3604    5.1796 C.2       1 UNK         0.0000 
   3591 C(8)       31.5516   69.9263    5.3006 C.3       1 UNK         0.0000 
   3592 H(1)       30.0794   73.8198    4.2122 H         1 UNK         0.0000 
   3593 H(2)       30.0621   76.2706    4.1963 H         1 UNK         0.0000 
   3594 H(3)       33.9217   76.3301    6.0762 H         1 UNK         0.0000 
   3595 H(4)       33.9345   73.8598    6.0906 H         1 UNK         0.0000 
   3596 H(5)       32.7917   78.2127    5.3025 H         1 UNK         0.0000 
   3597 H(6)       33.0275   71.9022    5.3956 H         1 UNK         0.0000 
   3598 H(7)       31.4734   69.4632    4.3514 H         1 UNK         0.0000 
   3599 H(8)       32.5484   69.8281    5.6446 H         1 UNK         0.0000 
   3600 H(9)       30.8712   69.4086    5.9254 H         1 UNK         0.0000 
   3601 O(1)       28.2982   12.6340    6.2473 O.3       1 UNK         0.0000 
   3602 O(2)       26.3004   11.3940   12.2913 O.2       1 UNK         0.0000 
   3603 N(1)       28.4815   11.3433   11.6604 N.am      1 UNK         0.0000 
   3604 C(1)       28.3821   11.7022   10.2975 C.ar      1 UNK         0.0000 
   3605 C(2)       27.2999   12.3881    9.7463 C.ar      1 UNK         0.0000 
   3606 C(3)       27.2929   12.6969    8.3892 C.ar      1 UNK         0.0000 
   3607 C(4)       28.3629   12.3342    7.5752 C.ar      1 UNK         0.0000 
   3608 C(5)       29.4585   11.6758    8.1323 C.ar      1 UNK         0.0000 
   3609 C(6)       29.4638   11.3630    9.4841 C.ar      1 UNK         0.0000 
   3610 C(7)       27.4908   11.1905   12.5539 C.2       1 UNK         0.0000 
   3611 C(8)       27.9316   10.7579   13.9266 C.3       1 UNK         0.0000 
   3612 H(1)       26.4594   12.6738   10.3666 H         1 UNK         0.0000 
   3613 H(2)       26.4421   13.2268    7.9789 H         1 UNK         0.0000 
   3614 H(3)       30.3017   11.4057    7.5086 H         1 UNK         0.0000 
   3615 H(4)       30.3144   10.8499    9.9156 H         1 UNK         0.0000 
   3616 H(5)       29.1716   12.5735    5.8415 H         1 UNK         0.0000 
   3617 H(6)       29.4075   11.0986   11.9779 H         1 UNK         0.0000 
   3618 H(7)       27.8533   11.5823   14.5866 H         1 UNK         0.0000 
   3619 H(8)       28.9284   10.4007   13.9469 H         1 UNK         0.0000 
   3620 H(9)       27.2511   10.0347   14.2946 H         1 UNK         0.0000 
   3621 O(1)       32.6517    1.3125    9.4321 O.3       1 UNK         0.0000 
   3622 O(2)       34.6495    7.4813    9.5479 O.2       1 UNK         0.0000 
   3623 N(1)       32.4684    6.8769    9.3602 N.am      1 UNK         0.0000 
   3624 C(1)       32.5678    5.4685    9.4114 C.ar      1 UNK         0.0000 
   3625 C(2)       33.6500    4.7803    9.9597 C.ar      1 UNK         0.0000 
   3626 C(3)       33.6570    3.3885    9.9633 C.ar      1 UNK         0.0000 
   3627 C(4)       32.5870    2.6738    9.4309 C.ar      1 UNK         0.0000 
   3628 C(5)       31.4914    3.3618    8.9107 C.ar      1 UNK         0.0000 
   3629 C(6)       31.4861    4.7493    8.9020 C.ar      1 UNK         0.0000 
   3630 C(7)       33.4591    7.7822    9.4070 C.2       1 UNK         0.0000 
   3631 C(8)       33.0183    9.2163    9.2860 C.3       1 UNK         0.0000 
   3632 H(1)       34.4905    5.3228   10.3744 H         1 UNK         0.0000 
   3633 H(2)       34.5078    2.8720   10.3903 H         1 UNK         0.0000 
   3634 H(3)       30.6482    2.8125    8.5104 H         1 UNK         0.0000 
   3635 H(4)       30.6354    5.2828    8.4961 H         1 UNK         0.0000 
   3636 H(5)       31.7783    0.9299    9.2841 H         1 UNK         0.0000 
   3637 H(6)       31.5424    7.2404    9.1910 H         1 UNK         0.0000 
   3638 H(7)       33.0965    9.6795   10.2352 H         1 UNK         0.0000 
   3639 H(8)       32.0215    9.3145    8.9420 H         1 UNK         0.0000 
   3640 H(9)       33.6988    9.7340    8.6612 H         1 UNK         0.0000 
   3641 O(1)       22.8316   13.5102   15.5017 O.3       1 UNK         0.0000 
   3642 O(2)       24.8294   14.7503    9.4577 O.2       1 UNK         0.0000 
   3643 N(1)       22.6483   14.8009   10.0886 N.am      1 UNK         0.0000 
   3644 C(1)       22.7477   14.4420   11.4515 C.ar      1 UNK         0.0000 
   3645 C(2)       23.8299   13.7561   12.0027 C.ar      1 UNK         0.0000 
   3646 C(3)       23.8369   13.4474   13.3599 C.ar      1 UNK         0.0000 
   3647 C(4)       22.7669   13.8100   14.1738 C.ar      1 UNK         0.0000 
   3648 C(5)       21.6713   14.4684   13.6167 C.ar      1 UNK         0.0000 
   3649 C(6)       21.6660   14.7813   12.2649 C.ar      1 UNK         0.0000 
   3650 C(7)       23.6390   14.9538    9.1951 C.2       1 UNK         0.0000 
   3651 C(8)       23.1982   15.3864    7.8224 C.3       1 UNK         0.0000 
   3652 H(1)       24.6704   13.4705   11.3824 H         1 UNK         0.0000 
   3653 H(2)       24.6877   12.9175   13.7701 H         1 UNK         0.0000 
   3654 H(3)       20.8281   14.7385   14.2404 H         1 UNK         0.0000 
   3655 H(4)       20.8153   15.2944   11.8334 H         1 UNK         0.0000 
   3656 H(5)       21.9581   13.5707   15.9075 H         1 UNK         0.0000 
   3657 H(6)       21.7223   15.0457    9.7711 H         1 UNK         0.0000 
   3658 H(7)       23.2764   14.5620    7.1624 H         1 UNK         0.0000 
   3659 H(8)       22.2014   15.7436    7.8021 H         1 UNK         0.0000 
   3660 H(9)       23.8787   16.1095    7.4544 H         1 UNK         0.0000 
   3661 O(1)       23.9643   10.1494   12.3169 O.3       1 UNK         0.0000 
   3662 O(2)       21.9665    3.9806   12.2011 O.2       1 UNK         0.0000 
   3663 N(1)       24.1476    4.5850   12.3888 N.am      1 UNK         0.0000 
   3664 C(1)       24.0482    5.9935   12.3376 C.ar      1 UNK         0.0000 
   3665 C(2)       22.9660    6.6817   11.7893 C.ar      1 UNK         0.0000 
   3666 C(3)       22.9590    8.0735   11.7858 C.ar      1 UNK         0.0000 
   3667 C(4)       24.0290    8.7881   12.3181 C.ar      1 UNK         0.0000 
   3668 C(5)       25.1246    8.1002   12.8383 C.ar      1 UNK         0.0000 
   3669 C(6)       25.1299    6.7126   12.8470 C.ar      1 UNK         0.0000 
   3670 C(7)       23.1569    3.6797   12.3420 C.2       1 UNK         0.0000 
   3671 C(8)       23.5977    2.2456   12.4630 C.3       1 UNK         0.0000 
   3672 H(1)       22.1255    6.1391   11.3746 H         1 UNK         0.0000 
   3673 H(2)       22.1082    8.5900   11.3587 H         1 UNK         0.0000 
   3674 H(3)       25.9678    8.6494   13.2386 H         1 UNK         0.0000 
   3675 H(4)       25.9806    6.1791   13.2530 H         1 UNK         0.0000 
   3676 H(5)       24.8377   10.5320   12.4649 H         1 UNK         0.0000 
   3677 H(6)       25.0736    4.2215   12.5580 H         1 UNK         0.0000 
   3678 H(7)       23.5195    1.7825   11.5138 H         1 UNK         0.0000 
   3679 H(8)       24.5945    2.1474   12.8070 H         1 UNK         0.0000 
   3680 H(9)       22.9172    1.7279   13.0878 H         1 UNK         0.0000 
   3681 O(1)       28.2982   18.3650   13.4097 O.3       1 UNK         0.0000 
   3682 O(2)       26.3004   17.1249   19.4537 O.2       1 UNK         0.0000 
   3683 N(1)       28.4815   17.0743   18.8228 N.am      1 UNK         0.0000 
   3684 C(1)       28.3821   17.4332   17.4599 C.ar      1 UNK         0.0000 
   3685 C(2)       27.2999   18.1191   16.9087 C.ar      1 UNK         0.0000 
   3686 C(3)       27.2929   18.4278   15.5516 C.ar      1 UNK         0.0000 
   3687 C(4)       28.3629   18.0652   14.7376 C.ar      1 UNK         0.0000 
   3688 C(5)       29.4585   17.4068   15.2947 C.ar      1 UNK         0.0000 
   3689 C(6)       29.4638   17.0939   16.6465 C.ar      1 UNK         0.0000 
   3690 C(7)       27.4908   16.9215   19.7163 C.2       1 UNK         0.0000 
   3691 C(8)       27.9316   16.4888   21.0890 C.3       1 UNK         0.0000 
   3692 H(1)       26.4594   18.4047   17.5290 H         1 UNK         0.0000 
   3693 H(2)       26.4421   18.9577   15.1413 H         1 UNK         0.0000 
   3694 H(3)       30.3017   17.1367   14.6710 H         1 UNK         0.0000 
   3695 H(4)       30.3144   16.5809   17.0780 H         1 UNK         0.0000 
   3696 H(5)       29.1716   18.3045   13.0039 H         1 UNK         0.0000 
   3697 H(6)       29.4075   16.8295   19.1403 H         1 UNK         0.0000 
   3698 H(7)       27.8533   17.3133   21.7490 H         1 UNK         0.0000 
   3699 H(8)       28.9284   16.1317   21.1093 H         1 UNK         0.0000 
   3700 H(9)       27.2511   15.7657   21.4570 H         1 UNK         0.0000 
   3701 O(1)       32.6517    7.0435   16.5945 O.3       1 UNK         0.0000 
   3702 O(2)       34.6495   13.2123   16.7103 O.2       1 UNK         0.0000 
   3703 N(1)       32.4684   12.6079   16.5226 N.am      1 UNK         0.0000 
   3704 C(1)       32.5678   11.1994   16.5738 C.ar      1 UNK         0.0000 
   3705 C(2)       33.6500   10.5112   17.1221 C.ar      1 UNK         0.0000 
   3706 C(3)       33.6570    9.1194   17.1257 C.ar      1 UNK         0.0000 
   3707 C(4)       32.5870    8.4048   16.5933 C.ar      1 UNK         0.0000 
   3708 C(5)       31.4914    9.0927   16.0731 C.ar      1 UNK         0.0000 
   3709 C(6)       31.4861   10.4803   16.0644 C.ar      1 UNK         0.0000 
   3710 C(7)       33.4591   13.5132   16.5694 C.2       1 UNK         0.0000 
   3711 C(8)       33.0183   14.9473   16.4484 C.3       1 UNK         0.0000 
   3712 H(1)       34.4905   11.0538   17.5368 H         1 UNK         0.0000 
   3713 H(2)       34.5078    8.6029   17.5527 H         1 UNK         0.0000 
   3714 H(3)       30.6482    8.5435   15.6728 H         1 UNK         0.0000 
   3715 H(4)       30.6354   11.0138   15.6585 H         1 UNK         0.0000 
   3716 H(5)       31.7783    6.6609   16.4465 H         1 UNK         0.0000 
   3717 H(6)       31.5424   12.9713   16.3534 H         1 UNK         0.0000 
   3718 H(7)       33.0965   15.4104   17.3976 H         1 UNK         0.0000 
   3719 H(8)       32.0215   15.0455   16.1044 H         1 UNK         0.0000 
   3720 H(9)       33.6988   15.4650   15.8236 H         1 UNK         0.0000 
   3721 O(1)       28.3178    4.5589   22.6641 O.3       1 UNK         0.0000 
   3722 O(2)       30.3156    5.7989   16.6201 O.2       1 UNK         0.0000 
   3723 N(1)       28.1345    5.8496   17.2510 N.am      1 UNK         0.0000 
   3724 C(1)       28.2339    5.4907   18.6139 C.ar      1 UNK         0.0000 
   3725 C(2)       29.3161    4.8048   19.1651 C.ar      1 UNK         0.0000 
   3726 C(3)       29.3231    4.4960   20.5223 C.ar      1 UNK         0.0000 
   3727 C(4)       28.2531    4.8587   21.3362 C.ar      1 UNK         0.0000 
   3728 C(5)       27.1575    5.5171   20.7791 C.ar      1 UNK         0.0000 
   3729 C(6)       27.1522    5.8299   19.4273 C.ar      1 UNK         0.0000 
   3730 C(7)       29.1252    6.0024   16.3575 C.2       1 UNK         0.0000 
   3731 C(8)       28.6844    6.4350   14.9848 C.3       1 UNK         0.0000 
   3732 H(1)       30.1566    4.5191   18.5448 H         1 UNK         0.0000 
   3733 H(2)       30.1739    3.9661   20.9325 H         1 UNK         0.0000 
   3734 H(3)       26.3143    5.7872   21.4028 H         1 UNK         0.0000 
   3735 H(4)       26.3016    6.3430   18.9958 H         1 UNK         0.0000 
   3736 H(5)       27.4444    4.6194   23.0699 H         1 UNK         0.0000 
   3737 H(6)       27.2085    6.0943   16.9335 H         1 UNK         0.0000 
   3738 H(7)       28.7627    5.6106   14.3248 H         1 UNK         0.0000 
   3739 H(8)       27.6876    6.7922   14.9645 H         1 UNK         0.0000 
   3740 H(9)       29.3649    7.1582   14.6168 H         1 UNK         0.0000 
   3741 O(1)       31.0413   15.8804   19.4793 O.3       1 UNK         0.0000 
   3742 O(2)       29.0435    9.7116   19.3635 O.2       1 UNK         0.0000 
   3743 N(1)       31.2246   10.3160   19.5512 N.am      1 UNK         0.0000 
   3744 C(1)       31.1252   11.7244   19.5000 C.ar      1 UNK         0.0000 
   3745 C(2)       30.0430   12.4126   18.9517 C.ar      1 UNK         0.0000 
   3746 C(3)       30.0360   13.8044   18.9482 C.ar      1 UNK         0.0000 
   3747 C(4)       31.1060   14.5191   19.4805 C.ar      1 UNK         0.0000 
   3748 C(5)       32.2016   13.8311   20.0007 C.ar      1 UNK         0.0000 
   3749 C(6)       32.2069   12.4436   20.0094 C.ar      1 UNK         0.0000 
   3750 C(7)       30.2339    9.4107   19.5044 C.2       1 UNK         0.0000 
   3751 C(8)       30.6747    7.9766   19.6254 C.3       1 UNK         0.0000 
   3752 H(1)       29.2025   11.8701   18.5370 H         1 UNK         0.0000 
   3753 H(2)       29.1852   14.3209   18.5211 H         1 UNK         0.0000 
   3754 H(3)       33.0448   14.3804   20.4010 H         1 UNK         0.0000 
   3755 H(4)       33.0576   11.9101   20.4154 H         1 UNK         0.0000 
   3756 H(5)       31.9147   16.2630   19.6273 H         1 UNK         0.0000 
   3757 H(6)       32.1506    9.9525   19.7204 H         1 UNK         0.0000 
   3758 H(7)       30.5965    7.5134   18.6762 H         1 UNK         0.0000 
   3759 H(8)       31.6715    7.8784   19.9694 H         1 UNK         0.0000 
   3760 H(9)       29.9942    7.4589   20.2502 H         1 UNK         0.0000 
   3761 O(1)       26.7074    9.4136   20.5721 O.3       1 UNK         0.0000 
   3762 O(2)       24.7096    8.1736   26.6161 O.2       1 UNK         0.0000 
   3763 N(1)       26.8907    8.1229   25.9852 N.am      1 UNK         0.0000 
   3764 C(1)       26.7913    8.4818   24.6223 C.ar      1 UNK         0.0000 
   3765 C(2)       25.7091    9.1677   24.0711 C.ar      1 UNK         0.0000 
   3766 C(3)       25.7021    9.4765   22.7140 C.ar      1 UNK         0.0000 
   3767 C(4)       26.7721    9.1138   21.9000 C.ar      1 UNK         0.0000 
   3768 C(5)       27.8677    8.4554   22.4571 C.ar      1 UNK         0.0000 
   3769 C(6)       27.8730    8.1426   23.8089 C.ar      1 UNK         0.0000 
   3770 C(7)       25.9000    7.9701   26.8787 C.2       1 UNK         0.0000 
   3771 C(8)       26.3408    7.5375   28.2514 C.3       1 UNK         0.0000 
   3772 H(1)       24.8686    9.4534   24.6914 H         1 UNK         0.0000 
   3773 H(2)       24.8513   10.0064   22.3037 H         1 UNK         0.0000 
   3774 H(3)       28.7109    8.1853   21.8334 H         1 UNK         0.0000 
   3775 H(4)       28.7237    7.6295   24.2404 H         1 UNK         0.0000 
   3776 H(5)       27.5809    9.3531   20.1663 H         1 UNK         0.0000 
   3777 H(6)       27.8167    7.8782   26.3027 H         1 UNK         0.0000 
   3778 H(7)       26.2626    8.3619   28.9114 H         1 UNK         0.0000 
   3779 H(8)       27.3376    7.1803   28.2717 H         1 UNK         0.0000 
   3780 H(9)       25.6603    6.8143   28.6194 H         1 UNK         0.0000 
   3781 O(1)       25.5747   12.7745   23.7569 O.3       1 UNK         0.0000 
   3782 O(2)       27.5725   18.9433   23.8727 O.2       1 UNK         0.0000 
   3783 N(1)       25.3914   18.3389   23.6850 N.am      1 UNK         0.0000 
   3784 C(1)       25.4908   16.9304   23.7362 C.ar      1 UNK         0.0000 
   3785 C(2)       26.5730   16.2422   24.2845 C.ar      1 UNK         0.0000 
   3786 C(3)       26.5800   14.8504   24.2881 C.ar      1 UNK         0.0000 
   3787 C(4)       25.5100   14.1358   23.7557 C.ar      1 UNK         0.0000 
   3788 C(5)       24.4144   14.8237   23.2355 C.ar      1 UNK         0.0000 
   3789 C(6)       24.4091   16.2112   23.2268 C.ar      1 UNK         0.0000 
   3790 C(7)       26.3821   19.2442   23.7318 C.2       1 UNK         0.0000 
   3791 C(8)       25.9413   20.6783   23.6108 C.3       1 UNK         0.0000 
   3792 H(1)       27.4135   16.7847   24.6992 H         1 UNK         0.0000 
   3793 H(2)       27.4308   14.3339   24.7151 H         1 UNK         0.0000 
   3794 H(3)       23.5712   14.2744   22.8352 H         1 UNK         0.0000 
   3795 H(4)       23.5584   16.7448   22.8209 H         1 UNK         0.0000 
   3796 H(5)       24.7013   12.3919   23.6089 H         1 UNK         0.0000 
   3797 H(6)       24.4654   18.7023   23.5158 H         1 UNK         0.0000 
   3798 H(7)       26.0195   21.1414   24.5600 H         1 UNK         0.0000 
   3799 H(8)       24.9445   20.7764   23.2668 H         1 UNK         0.0000 
   3800 H(9)       26.6218   21.1960   22.9860 H         1 UNK         0.0000 
   3801 O(1)       29.9086    7.7793    8.3393 O.3       1 UNK         0.0000 
   3802 O(2)       31.9064    9.0193    2.2953 O.2       1 UNK         0.0000 
   3803 N(1)       29.7253    9.0700    2.9262 N.am      1 UNK         0.0000 
   3804 C(1)       29.8247    8.7111    4.2891 C.ar      1 UNK         0.0000 
   3805 C(2)       30.9069    8.0252    4.8403 C.ar      1 UNK         0.0000 
   3806 C(3)       30.9139    7.7164    6.1975 C.ar      1 UNK         0.0000 
   3807 C(4)       29.8439    8.0791    7.0114 C.ar      1 UNK         0.0000 
   3808 C(5)       28.7483    8.7375    6.4543 C.ar      1 UNK         0.0000 
   3809 C(6)       28.7430    9.0503    5.1025 C.ar      1 UNK         0.0000 
   3810 C(7)       30.7160    9.2228    2.0327 C.2       1 UNK         0.0000 
   3811 C(8)       30.2752    9.6554    0.6600 C.3       1 UNK         0.0000 
   3812 H(1)       31.7474    7.7395    4.2200 H         1 UNK         0.0000 
   3813 H(2)       31.7647    7.1865    6.6077 H         1 UNK         0.0000 
   3814 H(3)       27.9051    9.0076    7.0780 H         1 UNK         0.0000 
   3815 H(4)       27.8923    9.5634    4.6710 H         1 UNK         0.0000 
   3816 H(5)       29.0351    7.8398    8.7451 H         1 UNK         0.0000 
   3817 H(6)       28.7993    9.3147    2.6087 H         1 UNK         0.0000 
   3818 H(7)       30.3534    8.8310    0.0000 H         1 UNK         0.0000 
   3819 H(8)       29.2784   10.0126    0.6397 H         1 UNK         0.0000 
   3820 H(9)       30.9557   10.3786    0.2920 H         1 UNK         0.0000 
   3821 O(1)       32.6321   19.1008    5.1545 O.3       1 UNK         0.0000 
   3822 O(2)       30.6343   12.9320    5.0387 O.2       1 UNK         0.0000 
   3823 N(1)       32.8154   13.5364    5.2264 N.am      1 UNK         0.0000 
   3824 C(1)       32.7160   14.9448    5.1752 C.ar      1 UNK         0.0000 
   3825 C(2)       31.6338   15.6330    4.6269 C.ar      1 UNK         0.0000 
   3826 C(3)       31.6268   17.0248    4.6234 C.ar      1 UNK         0.0000 
   3827 C(4)       32.6968   17.7395    5.1557 C.ar      1 UNK         0.0000 
   3828 C(5)       33.7924   17.0515    5.6759 C.ar      1 UNK         0.0000 
   3829 C(6)       33.7977   15.6640    5.6846 C.ar      1 UNK         0.0000 
   3830 C(7)       31.8246   12.6311    5.1796 C.2       1 UNK         0.0000 
   3831 C(8)       32.2655   11.1969    5.3006 C.3       1 UNK         0.0000 
   3832 H(1)       30.7933   15.0905    4.2122 H         1 UNK         0.0000 
   3833 H(2)       30.7760   17.5413    4.1963 H         1 UNK         0.0000 
   3834 H(3)       34.6356   17.6008    6.0762 H         1 UNK         0.0000 
   3835 H(4)       34.6483   15.1305    6.0906 H         1 UNK         0.0000 
   3836 H(5)       33.5055   19.4834    5.3025 H         1 UNK         0.0000 
   3837 H(6)       33.7414   13.1729    5.3956 H         1 UNK         0.0000 
   3838 H(7)       32.1872   10.7338    4.3514 H         1 UNK         0.0000 
   3839 H(8)       33.2623   11.0988    5.6446 H         1 UNK         0.0000 
   3840 H(9)       31.5850   10.6793    5.9254 H         1 UNK         0.0000 
   3841 O(1)       29.8890   27.3164    6.2473 O.3       1 UNK         0.0000 
   3842 O(2)       27.8912   26.0763   12.2913 O.2       1 UNK         0.0000 
   3843 N(1)       30.0723   26.0256   11.6604 N.am      1 UNK         0.0000 
   3844 C(1)       29.9729   26.3846   10.2975 C.ar      1 UNK         0.0000 
   3845 C(2)       28.8907   27.0704    9.7463 C.ar      1 UNK         0.0000 
   3846 C(3)       28.8837   27.3792    8.3892 C.ar      1 UNK         0.0000 
   3847 C(4)       29.9537   27.0165    7.5752 C.ar      1 UNK         0.0000 
   3848 C(5)       31.0493   26.3582    8.1323 C.ar      1 UNK         0.0000 
   3849 C(6)       31.0546   26.0453    9.4841 C.ar      1 UNK         0.0000 
   3850 C(7)       29.0815   25.8728   12.5539 C.2       1 UNK         0.0000 
   3851 C(8)       29.5224   25.4402   13.9266 C.3       1 UNK         0.0000 
   3852 H(1)       28.0502   27.3561   10.3666 H         1 UNK         0.0000 
   3853 H(2)       28.0329   27.9091    7.9789 H         1 UNK         0.0000 
   3854 H(3)       31.8925   26.0881    7.5086 H         1 UNK         0.0000 
   3855 H(4)       31.9052   25.5322    9.9156 H         1 UNK         0.0000 
   3856 H(5)       30.7624   27.2558    5.8415 H         1 UNK         0.0000 
   3857 H(6)       30.9983   25.7809   11.9779 H         1 UNK         0.0000 
   3858 H(7)       29.4441   26.2646   14.5866 H         1 UNK         0.0000 
   3859 H(8)       30.5192   25.0830   13.9469 H         1 UNK         0.0000 
   3860 H(9)       28.8419   24.7171   14.2946 H         1 UNK         0.0000 
   3861 O(1)       34.2425   15.9949    9.4321 O.3       1 UNK         0.0000 
   3862 O(2)       36.2403   22.1637    9.5479 O.2       1 UNK         0.0000 
   3863 N(1)       34.0591   21.5592    9.3602 N.am      1 UNK         0.0000 
   3864 C(1)       34.1586   20.1508    9.4114 C.ar      1 UNK         0.0000 
   3865 C(2)       35.2408   19.4626    9.9597 C.ar      1 UNK         0.0000 
   3866 C(3)       35.2478   18.0708    9.9633 C.ar      1 UNK         0.0000 
   3867 C(4)       34.1778   17.3562    9.4309 C.ar      1 UNK         0.0000 
   3868 C(5)       33.0822   18.0441    8.9107 C.ar      1 UNK         0.0000 
   3869 C(6)       33.0768   19.4316    8.9020 C.ar      1 UNK         0.0000 
   3870 C(7)       35.0499   22.4646    9.4070 C.2       1 UNK         0.0000 
   3871 C(8)       34.6091   23.8987    9.2860 C.3       1 UNK         0.0000 
   3872 H(1)       36.0813   20.0051   10.3744 H         1 UNK         0.0000 
   3873 H(2)       36.0986   17.5543   10.3903 H         1 UNK         0.0000 
   3874 H(3)       32.2390   17.4948    8.5104 H         1 UNK         0.0000 
   3875 H(4)       32.2262   19.9652    8.4961 H         1 UNK         0.0000 
   3876 H(5)       33.3690   15.6123    9.2841 H         1 UNK         0.0000 
   3877 H(6)       33.1332   21.9227    9.1910 H         1 UNK         0.0000 
   3878 H(7)       34.6873   24.3618   10.2352 H         1 UNK         0.0000 
   3879 H(8)       33.6123   23.9968    8.9420 H         1 UNK         0.0000 
   3880 H(9)       35.2895   24.4164    8.6612 H         1 UNK         0.0000 
   3881 O(1)       24.4224   28.1926   15.5017 O.3       1 UNK         0.0000 
   3882 O(2)       26.4202   29.4326    9.4577 O.2       1 UNK         0.0000 
   3883 N(1)       24.2390   29.4833   10.0886 N.am      1 UNK         0.0000 
   3884 C(1)       24.3385   29.1244   11.4515 C.ar      1 UNK         0.0000 
   3885 C(2)       25.4206   28.4385   12.0027 C.ar      1 UNK         0.0000 
   3886 C(3)       25.4277   28.1297   13.3599 C.ar      1 UNK         0.0000 
   3887 C(4)       24.3577   28.4924   14.1738 C.ar      1 UNK         0.0000 
   3888 C(5)       23.2620   29.1508   13.6167 C.ar      1 UNK         0.0000 
   3889 C(6)       23.2567   29.4636   12.2649 C.ar      1 UNK         0.0000 
   3890 C(7)       25.2298   29.6361    9.1951 C.2       1 UNK         0.0000 
   3891 C(8)       24.7890   30.0687    7.8224 C.3       1 UNK         0.0000 
   3892 H(1)       26.2612   28.1528   11.3824 H         1 UNK         0.0000 
   3893 H(2)       26.2785   27.5998   13.7701 H         1 UNK         0.0000 
   3894 H(3)       22.4189   29.4209   14.2404 H         1 UNK         0.0000 
   3895 H(4)       22.4061   29.9767   11.8334 H         1 UNK         0.0000 
   3896 H(5)       23.5489   28.2531   15.9075 H         1 UNK         0.0000 
   3897 H(6)       23.3131   29.7280    9.7711 H         1 UNK         0.0000 
   3898 H(7)       24.8672   29.2443    7.1624 H         1 UNK         0.0000 
   3899 H(8)       23.7922   30.4259    7.8021 H         1 UNK         0.0000 
   3900 H(9)       25.4694   30.7919    7.4544 H         1 UNK         0.0000 
   3901 O(1)       25.5551   24.8317   12.3169 O.3       1 UNK         0.0000 
   3902 O(2)       23.5573   18.6629   12.2011 O.2       1 UNK         0.0000 
   3903 N(1)       25.7384   19.2673   12.3888 N.am      1 UNK         0.0000 
   3904 C(1)       25.6390   20.6758   12.3376 C.ar      1 UNK         0.0000 
   3905 C(2)       24.5568   21.3640   11.7893 C.ar      1 UNK         0.0000 
   3906 C(3)       24.5498   22.7558   11.7858 C.ar      1 UNK         0.0000 
   3907 C(4)       25.6198   23.4704   12.3181 C.ar      1 UNK         0.0000 
   3908 C(5)       26.7154   22.7825   12.8383 C.ar      1 UNK         0.0000 
   3909 C(6)       26.7207   21.3950   12.8470 C.ar      1 UNK         0.0000 
   3910 C(7)       24.7476   18.3620   12.3420 C.2       1 UNK         0.0000 
   3911 C(8)       25.1885   16.9279   12.4630 C.3       1 UNK         0.0000 
   3912 H(1)       23.7163   20.8215   11.3746 H         1 UNK         0.0000 
   3913 H(2)       23.6990   23.2723   11.3587 H         1 UNK         0.0000 
   3914 H(3)       27.5586   23.3317   13.2386 H         1 UNK         0.0000 
   3915 H(4)       27.5713   20.8614   13.2530 H         1 UNK         0.0000 
   3916 H(5)       26.4285   25.2143   12.4649 H         1 UNK         0.0000 
   3917 H(6)       26.6644   18.9039   12.5580 H         1 UNK         0.0000 
   3918 H(7)       25.1102   16.4648   11.5138 H         1 UNK         0.0000 
   3919 H(8)       26.1853   16.8298   12.8070 H         1 UNK         0.0000 
   3920 H(9)       24.5080   16.4102   13.0878 H         1 UNK         0.0000 
   3921 O(1)       29.8890   33.0473   13.4097 O.3       1 UNK         0.0000 
   3922 O(2)       27.8912   31.8072   19.4537 O.2       1 UNK         0.0000 
   3923 N(1)       30.0723   31.7566   18.8228 N.am      1 UNK         0.0000 
   3924 C(1)       29.9729   32.1155   17.4599 C.ar      1 UNK         0.0000 
   3925 C(2)       28.8907   32.8014   16.9087 C.ar      1 UNK         0.0000 
   3926 C(3)       28.8837   33.1102   15.5516 C.ar      1 UNK         0.0000 
   3927 C(4)       29.9537   32.7475   14.7376 C.ar      1 UNK         0.0000 
   3928 C(5)       31.0493   32.0891   15.2947 C.ar      1 UNK         0.0000 
   3929 C(6)       31.0546   31.7763   16.6465 C.ar      1 UNK         0.0000 
   3930 C(7)       29.0815   31.6038   19.7163 C.2       1 UNK         0.0000 
   3931 C(8)       29.5224   31.1711   21.0890 C.3       1 UNK         0.0000 
   3932 H(1)       28.0502   33.0871   17.5290 H         1 UNK         0.0000 
   3933 H(2)       28.0329   33.6401   15.1413 H         1 UNK         0.0000 
   3934 H(3)       31.8925   31.8190   14.6710 H         1 UNK         0.0000 
   3935 H(4)       31.9052   31.2632   17.0780 H         1 UNK         0.0000 
   3936 H(5)       30.7624   32.9868   13.0039 H         1 UNK         0.0000 
   3937 H(6)       30.9983   31.5119   19.1403 H         1 UNK         0.0000 
   3938 H(7)       29.4441   31.9956   21.7490 H         1 UNK         0.0000 
   3939 H(8)       30.5192   30.8140   21.1093 H         1 UNK         0.0000 
   3940 H(9)       28.8419   30.4480   21.4570 H         1 UNK         0.0000 
   3941 O(1)       34.2425   21.7258   16.5945 O.3       1 UNK         0.0000 
   3942 O(2)       36.2403   27.8946   16.7103 O.2       1 UNK         0.0000 
   3943 N(1)       34.0591   27.2902   16.5226 N.am      1 UNK         0.0000 
   3944 C(1)       34.1586   25.8818   16.5738 C.ar      1 UNK         0.0000 
   3945 C(2)       35.2408   25.1936   17.1221 C.ar      1 UNK         0.0000 
   3946 C(3)       35.2478   23.8017   17.1257 C.ar      1 UNK         0.0000 
   3947 C(4)       34.1778   23.0871   16.5933 C.ar      1 UNK         0.0000 
   3948 C(5)       33.0822   23.7751   16.0731 C.ar      1 UNK         0.0000 
   3949 C(6)       33.0768   25.1626   16.0644 C.ar      1 UNK         0.0000 
   3950 C(7)       35.0499   28.1955   16.5694 C.2       1 UNK         0.0000 
   3951 C(8)       34.6091   29.6296   16.4484 C.3       1 UNK         0.0000 
   3952 H(1)       36.0813   25.7361   17.5368 H         1 UNK         0.0000 
   3953 H(2)       36.0986   23.2853   17.5527 H         1 UNK         0.0000 
   3954 H(3)       32.2390   23.2258   15.6728 H         1 UNK         0.0000 
   3955 H(4)       32.2262   25.6961   15.6585 H         1 UNK         0.0000 
   3956 H(5)       33.3690   21.3432   16.4465 H         1 UNK         0.0000 
   3957 H(6)       33.1332   27.6537   16.3534 H         1 UNK         0.0000 
   3958 H(7)       34.6873   30.0928   17.3976 H         1 UNK         0.0000 
   3959 H(8)       33.6123   29.7278   16.1044 H         1 UNK         0.0000 
   3960 H(9)       35.2895   30.1473   15.8236 H         1 UNK         0.0000 
   3961 O(1)       29.9086   19.2412   22.6641 O.3       1 UNK         0.0000 
   3962 O(2)       31.9064   20.4813   16.6201 O.2       1 UNK         0.0000 
   3963 N(1)       29.7253   20.5319   17.2510 N.am      1 UNK         0.0000 
   3964 C(1)       29.8247   20.1730   18.6139 C.ar      1 UNK         0.0000 
   3965 C(2)       30.9069   19.4871   19.1651 C.ar      1 UNK         0.0000 
   3966 C(3)       30.9139   19.1784   20.5223 C.ar      1 UNK         0.0000 
   3967 C(4)       29.8439   19.5410   21.3362 C.ar      1 UNK         0.0000 
   3968 C(5)       28.7483   20.1994   20.7791 C.ar      1 UNK         0.0000 
   3969 C(6)       28.7430   20.5123   19.4273 C.ar      1 UNK         0.0000 
   3970 C(7)       30.7160   20.6847   16.3575 C.2       1 UNK         0.0000 
   3971 C(8)       30.2752   21.1174   14.9848 C.3       1 UNK         0.0000 
   3972 H(1)       31.7474   19.2015   18.5448 H         1 UNK         0.0000 
   3973 H(2)       31.7647   18.6484   20.9325 H         1 UNK         0.0000 
   3974 H(3)       27.9051   20.4695   21.4028 H         1 UNK         0.0000 
   3975 H(4)       27.8923   21.0253   18.9958 H         1 UNK         0.0000 
   3976 H(5)       29.0351   19.3017   23.0699 H         1 UNK         0.0000 
   3977 H(6)       28.7993   20.7767   16.9335 H         1 UNK         0.0000 
   3978 H(7)       30.3534   20.2929   14.3248 H         1 UNK         0.0000 
   3979 H(8)       29.2784   21.4745   14.9645 H         1 UNK         0.0000 
   3980 H(9)       30.9557   21.8405   14.6168 H         1 UNK         0.0000 
   3981 O(1)       32.6321   30.5627   19.4793 O.3       1 UNK         0.0000 
   3982 O(2)       30.6343   24.3939   19.3635 O.2       1 UNK         0.0000 
   3983 N(1)       32.8154   24.9983   19.5512 N.am      1 UNK         0.0000 
   3984 C(1)       32.7160   26.4068   19.5000 C.ar      1 UNK         0.0000 
   3985 C(2)       31.6338   27.0950   18.9517 C.ar      1 UNK         0.0000 
   3986 C(3)       31.6268   28.4868   18.9482 C.ar      1 UNK         0.0000 
   3987 C(4)       32.6968   29.2014   19.4805 C.ar      1 UNK         0.0000 
   3988 C(5)       33.7924   28.5135   20.0007 C.ar      1 UNK         0.0000 
   3989 C(6)       33.7977   27.1259   20.0094 C.ar      1 UNK         0.0000 
   3990 C(7)       31.8246   24.0930   19.5044 C.2       1 UNK         0.0000 
   3991 C(8)       32.2655   22.6589   19.6254 C.3       1 UNK         0.0000 
   3992 H(1)       30.7933   26.5524   18.5370 H         1 UNK         0.0000 
   3993 H(2)       30.7760   29.0033   18.5211 H         1 UNK         0.0000 
   3994 H(3)       34.6356   29.0627   20.4010 H         1 UNK         0.0000 
   3995 H(4)       34.6483   26.5924   20.4154 H         1 UNK         0.0000 
   3996 H(5)       33.5055   30.9453   19.6273 H         1 UNK         0.0000 
   3997 H(6)       33.7414   24.6348   19.7204 H         1 UNK         0.0000 
   3998 H(7)       32.1872   22.1958   18.6762 H         1 UNK         0.0000 
   3999 H(8)       33.2623   22.5607   19.9694 H         1 UNK         0.0000 
   4000 H(9)       31.5850   22.1412   20.2502 H         1 UNK         0.0000 
   4001 O(1)       28.2982   24.0960   20.5721 O.3       1 UNK         0.0000 
   4002 O(2)       26.3004   22.8559   26.6161 O.2       1 UNK         0.0000 
   4003 N(1)       28.4815   22.8052   25.9852 N.am      1 UNK         0.0000 
   4004 C(1)       28.3821   23.1642   24.6223 C.ar      1 UNK         0.0000 
   4005 C(2)       27.2999   23.8500   24.0711 C.ar      1 UNK         0.0000 
   4006 C(3)       27.2929   24.1588   22.7140 C.ar      1 UNK         0.0000 
   4007 C(4)       28.3629   23.7962   21.9000 C.ar      1 UNK         0.0000 
   4008 C(5)       29.4585   23.1378   22.4571 C.ar      1 UNK         0.0000 
   4009 C(6)       29.4638   22.8249   23.8089 C.ar      1 UNK         0.0000 
   4010 C(7)       27.4908   22.6524   26.8787 C.2       1 UNK         0.0000 
   4011 C(8)       27.9316   22.2198   28.2514 C.3       1 UNK         0.0000 
   4012 H(1)       26.4594   24.1357   24.6914 H         1 UNK         0.0000 
   4013 H(2)       26.4421   24.6887   22.3037 H         1 UNK         0.0000 
   4014 H(3)       30.3017   22.8677   21.8334 H         1 UNK         0.0000 
   4015 H(4)       30.3144   22.3118   24.2404 H         1 UNK         0.0000 
   4016 H(5)       29.1716   24.0354   20.1663 H         1 UNK         0.0000 
   4017 H(6)       29.4075   22.5605   26.3027 H         1 UNK         0.0000 
   4018 H(7)       27.8533   23.0442   28.9114 H         1 UNK         0.0000 
   4019 H(8)       28.9284   21.8626   28.2717 H         1 UNK         0.0000 
   4020 H(9)       27.2511   21.4967   28.6194 H         1 UNK         0.0000 
   4021 O(1)       27.1655   27.4568   23.7569 O.3       1 UNK         0.0000 
   4022 O(2)       29.1633   33.6256   23.8727 O.2       1 UNK         0.0000 
   4023 N(1)       26.9821   33.0212   23.6850 N.am      1 UNK         0.0000 
   4024 C(1)       27.0816   31.6127   23.7362 C.ar      1 UNK         0.0000 
   4025 C(2)       28.1638   30.9245   24.2845 C.ar      1 UNK         0.0000 
   4026 C(3)       28.1708   29.5327   24.2881 C.ar      1 UNK         0.0000 
   4027 C(4)       27.1008   28.8181   23.7557 C.ar      1 UNK         0.0000 
   4028 C(5)       26.0052   29.5060   23.2355 C.ar      1 UNK         0.0000 
   4029 C(6)       25.9998   30.8936   23.2268 C.ar      1 UNK         0.0000 
   4030 C(7)       27.9729   33.9265   23.7318 C.2       1 UNK         0.0000 
   4031 C(8)       27.5321   35.3606   23.6108 C.3       1 UNK         0.0000 
   4032 H(1)       29.0043   31.4671   24.6992 H         1 UNK         0.0000 
   4033 H(2)       29.0216   29.0162   24.7151 H         1 UNK         0.0000 
   4034 H(3)       25.1620   28.9568   22.8352 H         1 UNK         0.0000 
   4035 H(4)       25.1492   31.4271   22.8209 H         1 UNK         0.0000 
   4036 H(5)       26.2920   27.0742   23.6089 H         1 UNK         0.0000 
   4037 H(6)       26.0562   33.3846   23.5158 H         1 UNK         0.0000 
   4038 H(7)       27.6103   35.8237   24.5600 H         1 UNK         0.0000 
   4039 H(8)       26.5353   35.4588   23.2668 H         1 UNK         0.0000 
   4040 H(9)       28.2125   35.8783   22.9860 H         1 UNK         0.0000 
   4041 O(1)       31.4994   22.4616    8.3393 O.3       1 UNK         0.0000 
   4042 O(2)       33.4972   23.7017    2.2953 O.2       1 UNK         0.0000 
   4043 N(1)       31.3160   23.7523    2.9262 N.am      1 UNK         0.0000 
   4044 C(1)       31.4155   23.3934    4.2891 C.ar      1 UNK         0.0000 
   4045 C(2)       32.4976   22.7075    4.8403 C.ar      1 UNK         0.0000 
   4046 C(3)       32.5047   22.3988    6.1975 C.ar      1 UNK         0.0000 
   4047 C(4)       31.4347   22.7614    7.0114 C.ar      1 UNK         0.0000 
   4048 C(5)       30.3390   23.4198    6.4543 C.ar      1 UNK         0.0000 
   4049 C(6)       30.3337   23.7327    5.1025 C.ar      1 UNK         0.0000 
   4050 C(7)       32.3068   23.9051    2.0327 C.2       1 UNK         0.0000 
   4051 C(8)       31.8660   24.3378    0.6600 C.3       1 UNK         0.0000 
   4052 H(1)       33.3382   22.4219    4.2200 H         1 UNK         0.0000 
   4053 H(2)       33.3555   21.8688    6.6077 H         1 UNK         0.0000 
   4054 H(3)       29.4959   23.6899    7.0780 H         1 UNK         0.0000 
   4055 H(4)       29.4831   24.2457    4.6710 H         1 UNK         0.0000 
   4056 H(5)       30.6259   22.5221    8.7451 H         1 UNK         0.0000 
   4057 H(6)       30.3901   23.9971    2.6087 H         1 UNK         0.0000 
   4058 H(7)       31.9442   23.5133    0.0000 H         1 UNK         0.0000 
   4059 H(8)       30.8692   24.6949    0.6397 H         1 UNK         0.0000 
   4060 H(9)       32.5464   25.0609    0.2920 H         1 UNK         0.0000 
   4061 O(1)       34.2229   33.7831    5.1545 O.3       1 UNK         0.0000 
   4062 O(2)       32.2251   27.6143    5.0387 O.2       1 UNK         0.0000 
   4063 N(1)       34.4062   28.2187    5.2264 N.am      1 UNK         0.0000 
   4064 C(1)       34.3068   29.6272    5.1752 C.ar      1 UNK         0.0000 
   4065 C(2)       33.2246   30.3154    4.6269 C.ar      1 UNK         0.0000 
   4066 C(3)       33.2176   31.7072    4.6234 C.ar      1 UNK         0.0000 
   4067 C(4)       34.2876   32.4218    5.1557 C.ar      1 UNK         0.0000 
   4068 C(5)       35.3832   31.7339    5.6759 C.ar      1 UNK         0.0000 
   4069 C(6)       35.3885   30.3463    5.6846 C.ar      1 UNK         0.0000 
   4070 C(7)       33.4154   27.3134    5.1796 C.2       1 UNK         0.0000 
   4071 C(8)       33.8563   25.8793    5.3006 C.3       1 UNK         0.0000 
   4072 H(1)       32.3841   29.7728    4.2122 H         1 UNK         0.0000 
   4073 H(2)       32.3668   32.2236    4.1963 H         1 UNK         0.0000 
   4074 H(3)       36.2264   32.2831    6.0762 H         1 UNK         0.0000 
   4075 H(4)       36.2391   29.8128    6.0906 H         1 UNK         0.0000 
   4076 H(5)       35.0963   34.1657    5.3025 H         1 UNK         0.0000 
   4077 H(6)       35.3322   27.8552    5.3956 H         1 UNK         0.0000 
   4078 H(7)       33.7780   25.4162    4.3514 H         1 UNK         0.0000 
   4079 H(8)       34.8531   25.7811    5.6446 H         1 UNK         0.0000 
   4080 H(9)       33.1758   25.3616    5.9254 H         1 UNK         0.0000 
   4081 O(1)       31.4798   41.9987    6.2473 O.3       1 UNK         0.0000 
   4082 O(2)       29.4820   40.7586   12.2913 O.2       1 UNK         0.0000 
   4083 N(1)       31.6631   40.7080   11.6604 N.am      1 UNK         0.0000 
   4084 C(1)       31.5636   41.0669   10.2975 C.ar      1 UNK         0.0000 
   4085 C(2)       30.4815   41.7528    9.7463 C.ar      1 UNK         0.0000 
   4086 C(3)       30.4745   42.0615    8.3892 C.ar      1 UNK         0.0000 
   4087 C(4)       31.5445   41.6989    7.5752 C.ar      1 UNK         0.0000 
   4088 C(5)       32.6401   41.0405    8.1323 C.ar      1 UNK         0.0000 
   4089 C(6)       32.6454   40.7276    9.4841 C.ar      1 UNK         0.0000 
   4090 C(7)       30.6723   40.5551   12.5539 C.2       1 UNK         0.0000 
   4091 C(8)       31.1132   40.1225   13.9266 C.3       1 UNK         0.0000 
   4092 H(1)       29.6410   42.0384   10.3666 H         1 UNK         0.0000 
   4093 H(2)       29.6236   42.5914    7.9789 H         1 UNK         0.0000 
   4094 H(3)       33.4833   40.7704    7.5086 H         1 UNK         0.0000 
   4095 H(4)       33.4960   40.2146    9.9156 H         1 UNK         0.0000 
   4096 H(5)       32.3532   41.9382    5.8415 H         1 UNK         0.0000 
   4097 H(6)       32.5891   40.4632   11.9779 H         1 UNK         0.0000 
   4098 H(7)       31.0349   40.9470   14.5866 H         1 UNK         0.0000 
   4099 H(8)       32.1100   39.7654   13.9469 H         1 UNK         0.0000 
   4100 H(9)       30.4327   39.3994   14.2946 H         1 UNK         0.0000 
   4101 O(1)       35.8333   30.6772    9.4321 O.3       1 UNK         0.0000 
   4102 O(2)       37.8311   36.8460    9.5479 O.2       1 UNK         0.0000 
   4103 N(1)       35.6499   36.2416    9.3602 N.am      1 UNK         0.0000 
   4104 C(1)       35.7494   34.8331    9.4114 C.ar      1 UNK         0.0000 
   4105 C(2)       36.8315   34.1449    9.9597 C.ar      1 UNK         0.0000 
   4106 C(3)       36.8386   32.7531    9.9633 C.ar      1 UNK         0.0000 
   4107 C(4)       35.7685   32.0385    9.4309 C.ar      1 UNK         0.0000 
   4108 C(5)       34.6729   32.7264    8.9107 C.ar      1 UNK         0.0000 
   4109 C(6)       34.6676   34.1140    8.9020 C.ar      1 UNK         0.0000 
   4110 C(7)       36.6407   37.1469    9.4070 C.2       1 UNK         0.0000 
   4111 C(8)       36.1998   38.5810    9.2860 C.3       1 UNK         0.0000 
   4112 H(1)       37.6721   34.6875   10.3744 H         1 UNK         0.0000 
   4113 H(2)       37.6894   32.2366   10.3903 H         1 UNK         0.0000 
   4114 H(3)       33.8298   32.1772    8.5104 H         1 UNK         0.0000 
   4115 H(4)       33.8170   34.6475    8.4961 H         1 UNK         0.0000 
   4116 H(5)       34.9598   30.2946    9.2841 H         1 UNK         0.0000 
   4117 H(6)       34.7240   36.6050    9.1910 H         1 UNK         0.0000 
   4118 H(7)       36.2781   39.0441   10.2352 H         1 UNK         0.0000 
   4119 H(8)       35.2031   38.6792    8.9420 H         1 UNK         0.0000 
   4120 H(9)       36.8803   39.0987    8.6612 H         1 UNK         0.0000 
   4121 O(1)       26.0132   42.8749   15.5017 O.3       1 UNK         0.0000 
   4122 O(2)       28.0110   44.1150    9.4577 O.2       1 UNK         0.0000 
   4123 N(1)       25.8298   44.1656   10.0886 N.am      1 UNK         0.0000 
   4124 C(1)       25.9293   43.8067   11.4515 C.ar      1 UNK         0.0000 
   4125 C(2)       27.0114   43.1208   12.0027 C.ar      1 UNK         0.0000 
   4126 C(3)       27.0185   42.8120   13.3599 C.ar      1 UNK         0.0000 
   4127 C(4)       25.9484   43.1747   14.1738 C.ar      1 UNK         0.0000 
   4128 C(5)       24.8528   43.8331   13.6167 C.ar      1 UNK         0.0000 
   4129 C(6)       24.8475   44.1460   12.2649 C.ar      1 UNK         0.0000 
   4130 C(7)       26.8206   44.3184    9.1951 C.2       1 UNK         0.0000 
   4131 C(8)       26.3797   44.7511    7.8224 C.3       1 UNK         0.0000 
   4132 H(1)       27.8520   42.8352   11.3824 H         1 UNK         0.0000 
   4133 H(2)       27.8693   42.2821   13.7701 H         1 UNK         0.0000 
   4134 H(3)       24.0097   44.1032   14.2404 H         1 UNK         0.0000 
   4135 H(4)       23.9969   44.6590   11.8334 H         1 UNK         0.0000 
   4136 H(5)       25.1397   42.9354   15.9075 H         1 UNK         0.0000 
   4137 H(6)       24.9039   44.4103    9.7711 H         1 UNK         0.0000 
   4138 H(7)       26.4580   43.9266    7.1624 H         1 UNK         0.0000 
   4139 H(8)       25.3830   45.1082    7.8021 H         1 UNK         0.0000 
   4140 H(9)       27.0602   45.4742    7.4544 H         1 UNK         0.0000 
   4141 O(1)       27.1459   39.5141   12.3169 O.3       1 UNK         0.0000 
   4142 O(2)       25.1481   33.3453   12.2011 O.2       1 UNK         0.0000 
   4143 N(1)       27.3292   33.9497   12.3888 N.am      1 UNK         0.0000 
   4144 C(1)       27.2297   35.3581   12.3376 C.ar      1 UNK         0.0000 
   4145 C(2)       26.1476   36.0463   11.7893 C.ar      1 UNK         0.0000 
   4146 C(3)       26.1406   37.4381   11.7858 C.ar      1 UNK         0.0000 
   4147 C(4)       27.2106   38.1527   12.3181 C.ar      1 UNK         0.0000 
   4148 C(5)       28.3062   37.4648   12.8383 C.ar      1 UNK         0.0000 
   4149 C(6)       28.3115   36.0773   12.8470 C.ar      1 UNK         0.0000 
   4150 C(7)       26.3384   33.0444   12.3420 C.2       1 UNK         0.0000 
   4151 C(8)       26.7793   31.6102   12.4630 C.3       1 UNK         0.0000 
   4152 H(1)       25.3071   35.5038   11.3746 H         1 UNK         0.0000 
   4153 H(2)       25.2898   37.9546   11.3587 H         1 UNK         0.0000 
   4154 H(3)       29.1494   38.0141   13.2386 H         1 UNK         0.0000 
   4155 H(4)       29.1621   35.5438   13.2530 H         1 UNK         0.0000 
   4156 H(5)       28.0193   39.8967   12.4649 H         1 UNK         0.0000 
   4157 H(6)       28.2552   33.5862   12.5580 H         1 UNK         0.0000 
   4158 H(7)       26.7010   31.1471   11.5138 H         1 UNK         0.0000 
   4159 H(8)       27.7761   31.5121   12.8070 H         1 UNK         0.0000 
   4160 H(9)       26.0988   31.0926   13.0878 H         1 UNK         0.0000 
   4161 O(1)       31.4798   47.7297   13.4097 O.3       1 UNK         0.0000 
   4162 O(2)       29.4820   46.4896   19.4537 O.2       1 UNK         0.0000 
   4163 N(1)       31.6631   46.4389   18.8228 N.am      1 UNK         0.0000 
   4164 C(1)       31.5636   46.7979   17.4599 C.ar      1 UNK         0.0000 
   4165 C(2)       30.4815   47.4837   16.9087 C.ar      1 UNK         0.0000 
   4166 C(3)       30.4745   47.7925   15.5516 C.ar      1 UNK         0.0000 
   4167 C(4)       31.5445   47.4298   14.7376 C.ar      1 UNK         0.0000 
   4168 C(5)       32.6401   46.7715   15.2947 C.ar      1 UNK         0.0000 
   4169 C(6)       32.6454   46.4586   16.6465 C.ar      1 UNK         0.0000 
   4170 C(7)       30.6723   46.2861   19.7163 C.2       1 UNK         0.0000 
   4171 C(8)       31.1132   45.8535   21.0890 C.3       1 UNK         0.0000 
   4172 H(1)       29.6410   47.7694   17.5290 H         1 UNK         0.0000 
   4173 H(2)       29.6236   48.3224   15.1413 H         1 UNK         0.0000 
   4174 H(3)       33.4833   46.5014   14.6710 H         1 UNK         0.0000 
   4175 H(4)       33.4960   45.9455   17.0780 H         1 UNK         0.0000 
   4176 H(5)       32.3532   47.6691   13.0039 H         1 UNK         0.0000 
   4177 H(6)       32.5891   46.1942   19.1403 H         1 UNK         0.0000 
   4178 H(7)       31.0349   46.6779   21.7490 H         1 UNK         0.0000 
   4179 H(8)       32.1100   45.4963   21.1093 H         1 UNK         0.0000 
   4180 H(9)       30.4327   45.1304   21.4570 H         1 UNK         0.0000 
   4181 O(1)       35.8333   36.4082   16.5945 O.3       1 UNK         0.0000 
   4182 O(2)       37.8311   42.5769   16.7103 O.2       1 UNK         0.0000 
   4183 N(1)       35.6499   41.9725   16.5226 N.am      1 UNK         0.0000 
   4184 C(1)       35.7494   40.5641   16.5738 C.ar      1 UNK         0.0000 
   4185 C(2)       36.8315   39.8759   17.1221 C.ar      1 UNK         0.0000 
   4186 C(3)       36.8386   38.4841   17.1257 C.ar      1 UNK         0.0000 
   4187 C(4)       35.7685   37.7695   16.5933 C.ar      1 UNK         0.0000 
   4188 C(5)       34.6729   38.4574   16.0731 C.ar      1 UNK         0.0000 
   4189 C(6)       34.6676   39.8449   16.0644 C.ar      1 UNK         0.0000 
   4190 C(7)       36.6407   42.8779   16.5694 C.2       1 UNK         0.0000 
   4191 C(8)       36.1998   44.3120   16.4484 C.3       1 UNK         0.0000 
   4192 H(1)       37.6721   40.4184   17.5368 H         1 UNK         0.0000 
   4193 H(2)       37.6894   37.9676   17.5527 H         1 UNK         0.0000 
   4194 H(3)       33.8298   37.9081   15.6728 H         1 UNK         0.0000 
   4195 H(4)       33.8170   40.3784   15.6585 H         1 UNK         0.0000 
   4196 H(5)       34.9598   36.0256   16.4465 H         1 UNK         0.0000 
   4197 H(6)       34.7240   42.3360   16.3534 H         1 UNK         0.0000 
   4198 H(7)       36.2781   44.7751   17.3976 H         1 UNK         0.0000 
   4199 H(8)       35.2031   44.4101   16.1044 H         1 UNK         0.0000 
   4200 H(9)       36.8803   44.8296   15.8236 H         1 UNK         0.0000 
   4201 O(1)       31.4994   33.9235   22.6641 O.3       1 UNK         0.0000 
   4202 O(2)       33.4972   35.1636   16.6201 O.2       1 UNK         0.0000 
   4203 N(1)       31.3160   35.2142   17.2510 N.am      1 UNK         0.0000 
   4204 C(1)       31.4155   34.8553   18.6139 C.ar      1 UNK         0.0000 
   4205 C(2)       32.4976   34.1694   19.1651 C.ar      1 UNK         0.0000 
   4206 C(3)       32.5047   33.8607   20.5223 C.ar      1 UNK         0.0000 
   4207 C(4)       31.4347   34.2233   21.3362 C.ar      1 UNK         0.0000 
   4208 C(5)       30.3390   34.8817   20.7791 C.ar      1 UNK         0.0000 
   4209 C(6)       30.3337   35.1946   19.4273 C.ar      1 UNK         0.0000 
   4210 C(7)       32.3068   35.3671   16.3575 C.2       1 UNK         0.0000 
   4211 C(8)       31.8660   35.7997   14.9848 C.3       1 UNK         0.0000 
   4212 H(1)       33.3382   33.8838   18.5448 H         1 UNK         0.0000 
   4213 H(2)       33.3555   33.3308   20.9325 H         1 UNK         0.0000 
   4214 H(3)       29.4959   35.1518   21.4028 H         1 UNK         0.0000 
   4215 H(4)       29.4831   35.7077   18.9958 H         1 UNK         0.0000 
   4216 H(5)       30.6259   33.9840   23.0699 H         1 UNK         0.0000 
   4217 H(6)       30.3901   35.4590   16.9335 H         1 UNK         0.0000 
   4218 H(7)       31.9442   34.9753   14.3248 H         1 UNK         0.0000 
   4219 H(8)       30.8692   36.1568   14.9645 H         1 UNK         0.0000 
   4220 H(9)       32.5464   36.5228   14.6168 H         1 UNK         0.0000 
   4221 O(1)       34.2229   45.2450   19.4793 O.3       1 UNK         0.0000 
   4222 O(2)       32.2251   39.0762   19.3635 O.2       1 UNK         0.0000 
   4223 N(1)       34.4062   39.6806   19.5512 N.am      1 UNK         0.0000 
   4224 C(1)       34.3068   41.0891   19.5000 C.ar      1 UNK         0.0000 
   4225 C(2)       33.2246   41.7773   18.9517 C.ar      1 UNK         0.0000 
   4226 C(3)       33.2176   43.1691   18.9482 C.ar      1 UNK         0.0000 
   4227 C(4)       34.2876   43.8837   19.4805 C.ar      1 UNK         0.0000 
   4228 C(5)       35.3832   43.1958   20.0007 C.ar      1 UNK         0.0000 
   4229 C(6)       35.3885   41.8082   20.0094 C.ar      1 UNK         0.0000 
   4230 C(7)       33.4154   38.7753   19.5044 C.2       1 UNK         0.0000 
   4231 C(8)       33.8563   37.3412   19.6254 C.3       1 UNK         0.0000 
   4232 H(1)       32.3841   41.2348   18.5370 H         1 UNK         0.0000 
   4233 H(2)       32.3668   43.6856   18.5211 H         1 UNK         0.0000 
   4234 H(3)       36.2264   43.7450   20.4010 H         1 UNK         0.0000 
   4235 H(4)       36.2391   41.2747   20.4154 H         1 UNK         0.0000 
   4236 H(5)       35.0963   45.6276   19.6273 H         1 UNK         0.0000 
   4237 H(6)       35.3322   39.3172   19.7204 H         1 UNK         0.0000 
   4238 H(7)       33.7780   36.8781   18.6762 H         1 UNK         0.0000 
   4239 H(8)       34.8531   37.2431   19.9694 H         1 UNK         0.0000 
   4240 H(9)       33.1758   36.8235   20.2502 H         1 UNK         0.0000 
   4241 O(1)       29.8890   38.7783   20.5721 O.3       1 UNK         0.0000 
   4242 O(2)       27.8912   37.5382   26.6161 O.2       1 UNK         0.0000 
   4243 N(1)       30.0723   37.4876   25.9852 N.am      1 UNK         0.0000 
   4244 C(1)       29.9729   37.8465   24.6223 C.ar      1 UNK         0.0000 
   4245 C(2)       28.8907   38.5324   24.0711 C.ar      1 UNK         0.0000 
   4246 C(3)       28.8837   38.8411   22.7140 C.ar      1 UNK         0.0000 
   4247 C(4)       29.9537   38.4785   21.9000 C.ar      1 UNK         0.0000 
   4248 C(5)       31.0493   37.8201   22.4571 C.ar      1 UNK         0.0000 
   4249 C(6)       31.0546   37.5072   23.8089 C.ar      1 UNK         0.0000 
   4250 C(7)       29.0815   37.3347   26.8787 C.2       1 UNK         0.0000 
   4251 C(8)       29.5224   36.9021   28.2514 C.3       1 UNK         0.0000 
   4252 H(1)       28.0502   38.8180   24.6914 H         1 UNK         0.0000 
   4253 H(2)       28.0329   39.3710   22.3037 H         1 UNK         0.0000 
   4254 H(3)       31.8925   37.5500   21.8334 H         1 UNK         0.0000 
   4255 H(4)       31.9052   36.9942   24.2404 H         1 UNK         0.0000 
   4256 H(5)       30.7624   38.7178   20.1663 H         1 UNK         0.0000 
   4257 H(6)       30.9983   37.2428   26.3027 H         1 UNK         0.0000 
   4258 H(7)       29.4441   37.7266   28.9114 H         1 UNK         0.0000 
   4259 H(8)       30.5192   36.5450   28.2717 H         1 UNK         0.0000 
   4260 H(9)       28.8419   36.1790   28.6194 H         1 UNK         0.0000 
   4261 O(1)       28.7563   42.1391   23.7569 O.3       1 UNK         0.0000 
   4262 O(2)       30.7541   48.3079   23.8727 O.2       1 UNK         0.0000 
   4263 N(1)       28.5729   47.7035   23.6850 N.am      1 UNK         0.0000 
   4264 C(1)       28.6724   46.2951   23.7362 C.ar      1 UNK         0.0000 
   4265 C(2)       29.7545   45.6068   24.2845 C.ar      1 UNK         0.0000 
   4266 C(3)       29.7616   44.2150   24.2881 C.ar      1 UNK         0.0000 
   4267 C(4)       28.6915   43.5004   23.7557 C.ar      1 UNK         0.0000 
   4268 C(5)       27.5959   44.1884   23.2355 C.ar      1 UNK         0.0000 
   4269 C(6)       27.5906   45.5759   23.2268 C.ar      1 UNK         0.0000 
   4270 C(7)       29.5637   48.6088   23.7318 C.2       1 UNK         0.0000 
   4271 C(8)       29.1228   50.0429   23.6108 C.3       1 UNK         0.0000 
   4272 H(1)       30.5951   46.1494   24.6992 H         1 UNK         0.0000 
   4273 H(2)       30.6124   43.6986   24.7151 H         1 UNK         0.0000 
   4274 H(3)       26.7528   43.6391   22.8352 H         1 UNK         0.0000 
   4275 H(4)       26.7400   46.1094   22.8209 H         1 UNK         0.0000 
   4276 H(5)       27.8828   41.7565   23.6089 H         1 UNK         0.0000 
   4277 H(6)       27.6470   48.0670   23.5158 H         1 UNK         0.0000 
   4278 H(7)       29.2011   50.5060   24.5600 H         1 UNK         0.0000 
   4279 H(8)       28.1261   50.1411   23.2668 H         1 UNK         0.0000 
   4280 H(9)       29.8033   50.5606   22.9860 H         1 UNK         0.0000 
   4281 O(1)       33.0902   37.1439    8.3393 O.3       1 UNK         0.0000 
   4282 O(2)       35.0880   38.3840    2.2953 O.2       1 UNK         0.0000 
   4283 N(1)       32.9068   38.4346    2.9262 N.am      1 UNK         0.0000 
   4284 C(1)       33.0063   38.0757    4.2891 C.ar      1 UNK         0.0000 
   4285 C(2)       34.0884   37.3898    4.8403 C.ar      1 UNK         0.0000 
   4286 C(3)       34.0955   37.0811    6.1975 C.ar      1 UNK         0.0000 
   4287 C(4)       33.0254   37.4437    7.0114 C.ar      1 UNK         0.0000 
   4288 C(5)       31.9298   38.1021    6.4543 C.ar      1 UNK         0.0000 
   4289 C(6)       31.9245   38.4150    5.1025 C.ar      1 UNK         0.0000 
   4290 C(7)       33.8976   38.5875    2.0327 C.2       1 UNK         0.0000 
   4291 C(8)       33.4567   39.0201    0.6600 C.3       1 UNK         0.0000 
   4292 H(1)       34.9290   37.1042    4.2200 H         1 UNK         0.0000 
   4293 H(2)       34.9463   36.5512    6.6077 H         1 UNK         0.0000 
   4294 H(3)       31.0867   38.3722    7.0780 H         1 UNK         0.0000 
   4295 H(4)       31.0739   38.9281    4.6710 H         1 UNK         0.0000 
   4296 H(5)       32.2167   37.2044    8.7451 H         1 UNK         0.0000 
   4297 H(6)       31.9809   38.6794    2.6087 H         1 UNK         0.0000 
   4298 H(7)       33.5350   38.1956    0.0000 H         1 UNK         0.0000 
   4299 H(8)       32.4600   39.3772    0.6397 H         1 UNK         0.0000 
   4300 H(9)       34.1372   39.7432    0.2920 H         1 UNK         0.0000 
   4301 O(1)       35.8137   48.4654    5.1545 O.3       1 UNK         0.0000 
   4302 O(2)       33.8158   42.2966    5.0387 O.2       1 UNK         0.0000 
   4303 N(1)       35.9970   42.9010    5.2264 N.am      1 UNK         0.0000 
   4304 C(1)       35.8975   44.3095    5.1752 C.ar      1 UNK         0.0000 
   4305 C(2)       34.8154   44.9977    4.6269 C.ar      1 UNK         0.0000 
   4306 C(3)       34.8083   46.3895    4.6234 C.ar      1 UNK         0.0000 
   4307 C(4)       35.8784   47.1041    5.1557 C.ar      1 UNK         0.0000 
   4308 C(5)       36.9740   46.4162    5.6759 C.ar      1 UNK         0.0000 
   4309 C(6)       36.9793   45.0286    5.6846 C.ar      1 UNK         0.0000 
   4310 C(7)       35.0062   41.9957    5.1796 C.2       1 UNK         0.0000 
   4311 C(8)       35.4471   40.5616    5.3006 C.3       1 UNK         0.0000 
   4312 H(1)       33.9748   44.4552    4.2122 H         1 UNK         0.0000 
   4313 H(2)       33.9575   46.9060    4.1963 H         1 UNK         0.0000 
   4314 H(3)       37.8171   46.9654    6.0762 H         1 UNK         0.0000 
   4315 H(4)       37.8299   44.4951    6.0906 H         1 UNK         0.0000 
   4316 H(5)       36.6871   48.8480    5.3025 H         1 UNK         0.0000 
   4317 H(6)       36.9230   42.5376    5.3956 H         1 UNK         0.0000 
   4318 H(7)       35.3688   40.0985    4.3514 H         1 UNK         0.0000 
   4319 H(8)       36.4438   40.4635    5.6446 H         1 UNK         0.0000 
   4320 H(9)       34.7666   40.0439    5.9254 H         1 UNK         0.0000 
   4321 O(1)       33.0706   56.6810    6.2473 O.3       1 UNK         0.0000 
   4322 O(2)       31.0727   55.4409   12.2913 O.2       1 UNK         0.0000 
   4323 N(1)       33.2539   55.3903   11.6604 N.am      1 UNK         0.0000 
   4324 C(1)       33.1544   55.7492   10.2975 C.ar      1 UNK         0.0000 
   4325 C(2)       32.0723   56.4351    9.7463 C.ar      1 UNK         0.0000 
   4326 C(3)       32.0652   56.7439    8.3892 C.ar      1 UNK         0.0000 
   4327 C(4)       33.1353   56.3812    7.5752 C.ar      1 UNK         0.0000 
   4328 C(5)       34.2309   55.7228    8.1323 C.ar      1 UNK         0.0000 
   4329 C(6)       34.2362   55.4100    9.4841 C.ar      1 UNK         0.0000 
   4330 C(7)       32.2631   55.2375   12.5539 C.2       1 UNK         0.0000 
   4331 C(8)       32.7040   54.8048   13.9266 C.3       1 UNK         0.0000 
   4332 H(1)       31.2317   56.7208   10.3666 H         1 UNK         0.0000 
   4333 H(2)       31.2144   57.2738    7.9789 H         1 UNK         0.0000 
   4334 H(3)       35.0740   55.4527    7.5086 H         1 UNK         0.0000 
   4335 H(4)       35.0868   54.8969    9.9156 H         1 UNK         0.0000 
   4336 H(5)       33.9440   56.6205    5.8415 H         1 UNK         0.0000 
   4337 H(6)       34.1798   55.1456   11.9779 H         1 UNK         0.0000 
   4338 H(7)       32.6257   55.6293   14.5866 H         1 UNK         0.0000 
   4339 H(8)       33.7007   54.4477   13.9469 H         1 UNK         0.0000 
   4340 H(9)       32.0235   54.0817   14.2946 H         1 UNK         0.0000 
   4341 O(1)       37.4240   45.3595    9.4321 O.3       1 UNK         0.0000 
   4342 O(2)       39.4219   51.5283    9.5479 O.2       1 UNK         0.0000 
   4343 N(1)       37.2407   50.9239    9.3602 N.am      1 UNK         0.0000 
   4344 C(1)       37.3402   49.5155    9.4114 C.ar      1 UNK         0.0000 
   4345 C(2)       38.4223   48.8272    9.9597 C.ar      1 UNK         0.0000 
   4346 C(3)       38.4294   47.4354    9.9633 C.ar      1 UNK         0.0000 
   4347 C(4)       37.3593   46.7208    9.4309 C.ar      1 UNK         0.0000 
   4348 C(5)       36.2637   47.4088    8.9107 C.ar      1 UNK         0.0000 
   4349 C(6)       36.2584   48.7963    8.9020 C.ar      1 UNK         0.0000 
   4350 C(7)       38.2315   51.8292    9.4070 C.2       1 UNK         0.0000 
   4351 C(8)       37.7906   53.2633    9.2860 C.3       1 UNK         0.0000 
   4352 H(1)       39.2629   49.3698   10.3744 H         1 UNK         0.0000 
   4353 H(2)       39.2802   46.9190   10.3903 H         1 UNK         0.0000 
   4354 H(3)       35.4206   46.8595    8.5104 H         1 UNK         0.0000 
   4355 H(4)       35.4078   49.3298    8.4961 H         1 UNK         0.0000 
   4356 H(5)       36.5506   44.9769    9.2841 H         1 UNK         0.0000 
   4357 H(6)       36.3147   51.2874    9.1910 H         1 UNK         0.0000 
   4358 H(7)       37.8689   53.7264   10.2352 H         1 UNK         0.0000 
   4359 H(8)       36.7939   53.3615    8.9420 H         1 UNK         0.0000 
   4360 H(9)       38.4711   53.7810    8.6612 H         1 UNK         0.0000 
   4361 O(1)       27.6039   57.5572   15.5017 O.3       1 UNK         0.0000 
   4362 O(2)       29.6017   58.7973    9.4577 O.2       1 UNK         0.0000 
   4363 N(1)       27.4206   58.8479   10.0886 N.am      1 UNK         0.0000 
   4364 C(1)       27.5201   58.4890   11.4515 C.ar      1 UNK         0.0000 
   4365 C(2)       28.6022   57.8031   12.0027 C.ar      1 UNK         0.0000 
   4366 C(3)       28.6092   57.4944   13.3599 C.ar      1 UNK         0.0000 
   4367 C(4)       27.5392   57.8570   14.1738 C.ar      1 UNK         0.0000 
   4368 C(5)       26.4436   58.5154   13.6167 C.ar      1 UNK         0.0000 
   4369 C(6)       26.4383   58.8283   12.2649 C.ar      1 UNK         0.0000 
   4370 C(7)       28.4114   59.0008    9.1951 C.2       1 UNK         0.0000 
   4371 C(8)       27.9705   59.4334    7.8224 C.3       1 UNK         0.0000 
   4372 H(1)       29.4428   57.5175   11.3824 H         1 UNK         0.0000 
   4373 H(2)       29.4601   56.9645   13.7701 H         1 UNK         0.0000 
   4374 H(3)       25.6004   58.7855   14.2404 H         1 UNK         0.0000 
   4375 H(4)       25.5877   59.3414   11.8334 H         1 UNK         0.0000 
   4376 H(5)       26.7305   57.6177   15.9075 H         1 UNK         0.0000 
   4377 H(6)       26.4946   59.0927    9.7711 H         1 UNK         0.0000 
   4378 H(7)       28.0488   58.6089    7.1624 H         1 UNK         0.0000 
   4379 H(8)       26.9737   59.7905    7.8021 H         1 UNK         0.0000 
   4380 H(9)       28.6510   60.1565    7.4544 H         1 UNK         0.0000 
   4381 O(1)       28.7367   54.1964   12.3169 O.3       1 UNK         0.0000 
   4382 O(2)       26.7388   48.0276   12.2011 O.2       1 UNK         0.0000 
   4383 N(1)       28.9200   48.6320   12.3888 N.am      1 UNK         0.0000 
   4384 C(1)       28.8205   50.0404   12.3376 C.ar      1 UNK         0.0000 
   4385 C(2)       27.7384   50.7287   11.7893 C.ar      1 UNK         0.0000 
   4386 C(3)       27.7313   52.1205   11.7858 C.ar      1 UNK         0.0000 
   4387 C(4)       28.8014   52.8351   12.3181 C.ar      1 UNK         0.0000 
   4388 C(5)       29.8970   52.1472   12.8383 C.ar      1 UNK         0.0000 
   4389 C(6)       29.9023   50.7596   12.8470 C.ar      1 UNK         0.0000 
   4390 C(7)       27.9292   47.7267   12.3420 C.2       1 UNK         0.0000 
   4391 C(8)       28.3701   46.2926   12.4630 C.3       1 UNK         0.0000 
   4392 H(1)       26.8978   50.1861   11.3746 H         1 UNK         0.0000 
   4393 H(2)       26.8805   52.6369   11.3587 H         1 UNK         0.0000 
   4394 H(3)       30.7401   52.6964   13.2386 H         1 UNK         0.0000 
   4395 H(4)       30.7529   50.2261   13.2530 H         1 UNK         0.0000 
   4396 H(5)       29.6101   54.5790   12.4649 H         1 UNK         0.0000 
   4397 H(6)       29.8460   48.2685   12.5580 H         1 UNK         0.0000 
   4398 H(7)       28.2918   45.8295   11.5138 H         1 UNK         0.0000 
   4399 H(8)       29.3668   46.1944   12.8070 H         1 UNK         0.0000 
   4400 H(9)       27.6896   45.7749   13.0878 H         1 UNK         0.0000 
   4401 O(1)       33.0706   62.4120   13.4097 O.3       1 UNK         0.0000 
   4402 O(2)       31.0727   61.1719   19.4537 O.2       1 UNK         0.0000 
   4403 N(1)       33.2539   61.1213   18.8228 N.am      1 UNK         0.0000 
   4404 C(1)       33.1544   61.4802   17.4599 C.ar      1 UNK         0.0000 
   4405 C(2)       32.0723   62.1661   16.9087 C.ar      1 UNK         0.0000 
   4406 C(3)       32.0652   62.4748   15.5516 C.ar      1 UNK         0.0000 
   4407 C(4)       33.1353   62.1122   14.7376 C.ar      1 UNK         0.0000 
   4408 C(5)       34.2309   61.4538   15.2947 C.ar      1 UNK         0.0000 
   4409 C(6)       34.2362   61.1409   16.6465 C.ar      1 UNK         0.0000 
   4410 C(7)       32.2631   60.9684   19.7163 C.2       1 UNK         0.0000 
   4411 C(8)       32.7040   60.5358   21.0890 C.3       1 UNK         0.0000 
   4412 H(1)       31.2317   62.4517   17.5290 H         1 UNK         0.0000 
   4413 H(2)       31.2144   63.0047   15.1413 H         1 UNK         0.0000 
   4414 H(3)       35.0740   61.1837   14.6710 H         1 UNK         0.0000 
   4415 H(4)       35.0868   60.6279   17.0780 H         1 UNK         0.0000 
   4416 H(5)       33.9440   62.3515   13.0039 H         1 UNK         0.0000 
   4417 H(6)       34.1798   60.8765   19.1403 H         1 UNK         0.0000 
   4418 H(7)       32.6257   61.3603   21.7490 H         1 UNK         0.0000 
   4419 H(8)       33.7007   60.1787   21.1093 H         1 UNK         0.0000 
   4420 H(9)       32.0235   59.8127   21.4570 H         1 UNK         0.0000 
   4421 O(1)       37.4240   51.0905   16.5945 O.3       1 UNK         0.0000 
   4422 O(2)       39.4219   57.2593   16.7103 O.2       1 UNK         0.0000 
   4423 N(1)       37.2407   56.6549   16.5226 N.am      1 UNK         0.0000 
   4424 C(1)       37.3402   55.2464   16.5738 C.ar      1 UNK         0.0000 
   4425 C(2)       38.4223   54.5582   17.1221 C.ar      1 UNK         0.0000 
   4426 C(3)       38.4294   53.1664   17.1257 C.ar      1 UNK         0.0000 
   4427 C(4)       37.3593   52.4518   16.5933 C.ar      1 UNK         0.0000 
   4428 C(5)       36.2637   53.1397   16.0731 C.ar      1 UNK         0.0000 
   4429 C(6)       36.2584   54.5273   16.0644 C.ar      1 UNK         0.0000 
   4430 C(7)       38.2315   57.5602   16.5694 C.2       1 UNK         0.0000 
   4431 C(8)       37.7906   58.9943   16.4484 C.3       1 UNK         0.0000 
   4432 H(1)       39.2629   55.1008   17.5368 H         1 UNK         0.0000 
   4433 H(2)       39.2802   52.6499   17.5527 H         1 UNK         0.0000 
   4434 H(3)       35.4206   52.5905   15.6728 H         1 UNK         0.0000 
   4435 H(4)       35.4078   55.0608   15.6585 H         1 UNK         0.0000 
   4436 H(5)       36.5506   50.7079   16.4465 H         1 UNK         0.0000 
   4437 H(6)       36.3147   57.0183   16.3534 H         1 UNK         0.0000 
   4438 H(7)       37.8689   59.4574   17.3976 H         1 UNK         0.0000 
   4439 H(8)       36.7939   59.0924   16.1044 H         1 UNK         0.0000 
   4440 H(9)       38.4711   59.5120   15.8236 H         1 UNK         0.0000 
   4441 O(1)       33.0902   48.6059   22.6641 O.3       1 UNK         0.0000 
   4442 O(2)       35.0880   49.8459   16.6201 O.2       1 UNK         0.0000 
   4443 N(1)       32.9068   49.8966   17.2510 N.am      1 UNK         0.0000 
   4444 C(1)       33.0063   49.5377   18.6139 C.ar      1 UNK         0.0000 
   4445 C(2)       34.0884   48.8518   19.1651 C.ar      1 UNK         0.0000 
   4446 C(3)       34.0955   48.5430   20.5223 C.ar      1 UNK         0.0000 
   4447 C(4)       33.0254   48.9057   21.3362 C.ar      1 UNK         0.0000 
   4448 C(5)       31.9298   49.5641   20.7791 C.ar      1 UNK         0.0000 
   4449 C(6)       31.9245   49.8769   19.4273 C.ar      1 UNK         0.0000 
   4450 C(7)       33.8976   50.0494   16.3575 C.2       1 UNK         0.0000 
   4451 C(8)       33.4567   50.4820   14.9848 C.3       1 UNK         0.0000 
   4452 H(1)       34.9290   48.5661   18.5448 H         1 UNK         0.0000 
   4453 H(2)       34.9463   48.0131   20.9325 H         1 UNK         0.0000 
   4454 H(3)       31.0867   49.8341   21.4028 H         1 UNK         0.0000 
   4455 H(4)       31.0739   50.3900   18.9958 H         1 UNK         0.0000 
   4456 H(5)       32.2167   48.6664   23.0699 H         1 UNK         0.0000 
   4457 H(6)       31.9809   50.1413   16.9335 H         1 UNK         0.0000 
   4458 H(7)       33.5350   49.6576   14.3248 H         1 UNK         0.0000 
   4459 H(8)       32.4600   50.8392   14.9645 H         1 UNK         0.0000 
   4460 H(9)       34.1372   51.2051   14.6168 H         1 UNK         0.0000 
   4461 O(1)       35.8137   59.9274   19.4793 O.3       1 UNK         0.0000 
   4462 O(2)       33.8158   53.7586   19.3635 O.2       1 UNK         0.0000 
   4463 N(1)       35.9970   54.3630   19.5512 N.am      1 UNK         0.0000 
   4464 C(1)       35.8975   55.7714   19.5000 C.ar      1 UNK         0.0000 
   4465 C(2)       34.8154   56.4596   18.9517 C.ar      1 UNK         0.0000 
   4466 C(3)       34.8083   57.8514   18.9482 C.ar      1 UNK         0.0000 
   4467 C(4)       35.8784   58.5660   19.4805 C.ar      1 UNK         0.0000 
   4468 C(5)       36.9740   57.8781   20.0007 C.ar      1 UNK         0.0000 
   4469 C(6)       36.9793   56.4906   20.0094 C.ar      1 UNK         0.0000 
   4470 C(7)       35.0062   53.4577   19.5044 C.2       1 UNK         0.0000 
   4471 C(8)       35.4471   52.0235   19.6254 C.3       1 UNK         0.0000 
   4472 H(1)       33.9748   55.9171   18.5370 H         1 UNK         0.0000 
   4473 H(2)       33.9575   58.3679   18.5211 H         1 UNK         0.0000 
   4474 H(3)       37.8171   58.4274   20.4010 H         1 UNK         0.0000 
   4475 H(4)       37.8299   55.9571   20.4154 H         1 UNK         0.0000 
   4476 H(5)       36.6871   60.3100   19.6273 H         1 UNK         0.0000 
   4477 H(6)       36.9230   53.9995   19.7204 H         1 UNK         0.0000 
   4478 H(7)       35.3688   51.5604   18.6762 H         1 UNK         0.0000 
   4479 H(8)       36.4438   51.9254   19.9694 H         1 UNK         0.0000 
   4480 H(9)       34.7666   51.5059   20.2502 H         1 UNK         0.0000 
   4481 O(1)       31.4798   53.4606   20.5721 O.3       1 UNK         0.0000 
   4482 O(2)       29.4820   52.2205   26.6161 O.2       1 UNK         0.0000 
   4483 N(1)       31.6631   52.1699   25.9852 N.am      1 UNK         0.0000 
   4484 C(1)       31.5636   52.5288   24.6223 C.ar      1 UNK         0.0000 
   4485 C(2)       30.4815   53.2147   24.0711 C.ar      1 UNK         0.0000 
   4486 C(3)       30.4745   53.5235   22.7140 C.ar      1 UNK         0.0000 
   4487 C(4)       31.5445   53.1608   21.9000 C.ar      1 UNK         0.0000 
   4488 C(5)       32.6401   52.5024   22.4571 C.ar      1 UNK         0.0000 
   4489 C(6)       32.6454   52.1896   23.8089 C.ar      1 UNK         0.0000 
   4490 C(7)       30.6723   52.0171   26.8787 C.2       1 UNK         0.0000 
   4491 C(8)       31.1132   51.5844   28.2514 C.3       1 UNK         0.0000 
   4492 H(1)       29.6410   53.5004   24.6914 H         1 UNK         0.0000 
   4493 H(2)       29.6236   54.0534   22.3037 H         1 UNK         0.0000 
   4494 H(3)       33.4833   52.2323   21.8334 H         1 UNK         0.0000 
   4495 H(4)       33.4960   51.6765   24.2404 H         1 UNK         0.0000 
   4496 H(5)       32.3532   53.4001   20.1663 H         1 UNK         0.0000 
   4497 H(6)       32.5891   51.9252   26.3027 H         1 UNK         0.0000 
   4498 H(7)       31.0349   52.4089   28.9114 H         1 UNK         0.0000 
   4499 H(8)       32.1100   51.2273   28.2717 H         1 UNK         0.0000 
   4500 H(9)       30.4327   50.8613   28.6194 H         1 UNK         0.0000 
   4501 O(1)       30.3470   56.8215   23.7569 O.3       1 UNK         0.0000 
   4502 O(2)       32.3449   62.9902   23.8727 O.2       1 UNK         0.0000 
   4503 N(1)       30.1637   62.3858   23.6850 N.am      1 UNK         0.0000 
   4504 C(1)       30.2632   60.9774   23.7362 C.ar      1 UNK         0.0000 
   4505 C(2)       31.3453   60.2892   24.2845 C.ar      1 UNK         0.0000 
   4506 C(3)       31.3524   58.8974   24.2881 C.ar      1 UNK         0.0000 
   4507 C(4)       30.2823   58.1828   23.7557 C.ar      1 UNK         0.0000 
   4508 C(5)       29.1867   58.8707   23.2355 C.ar      1 UNK         0.0000 
   4509 C(6)       29.1814   60.2582   23.2268 C.ar      1 UNK         0.0000 
   4510 C(7)       31.1545   63.2911   23.7318 C.2       1 UNK         0.0000 
   4511 C(8)       30.7136   64.7253   23.6108 C.3       1 UNK         0.0000 
   4512 H(1)       32.1859   60.8317   24.6992 H         1 UNK         0.0000 
   4513 H(2)       32.2032   58.3809   24.7151 H         1 UNK         0.0000 
   4514 H(3)       28.3436   58.3214   22.8352 H         1 UNK         0.0000 
   4515 H(4)       28.3308   60.7917   22.8209 H         1 UNK         0.0000 
   4516 H(5)       29.4736   56.4389   23.6089 H         1 UNK         0.0000 
   4517 H(6)       29.2377   62.7493   23.5158 H         1 UNK         0.0000 
   4518 H(7)       30.7919   65.1884   24.5600 H         1 UNK         0.0000 
   4519 H(8)       29.7169   64.8234   23.2668 H         1 UNK         0.0000 
   4520 H(9)       31.3941   65.2429   22.9860 H         1 UNK         0.0000 
   4521 O(1)       34.6809   51.8263    8.3393 O.3       1 UNK         0.0000 
   4522 O(2)       36.6788   53.0663    2.2953 O.2       1 UNK         0.0000 
   4523 N(1)       34.4976   53.1170    2.9262 N.am      1 UNK         0.0000 
   4524 C(1)       34.5971   52.7581    4.2891 C.ar      1 UNK         0.0000 
   4525 C(2)       35.6792   52.0722    4.8403 C.ar      1 UNK         0.0000 
   4526 C(3)       35.6862   51.7634    6.1975 C.ar      1 UNK         0.0000 
   4527 C(4)       34.6162   52.1261    7.0114 C.ar      1 UNK         0.0000 
   4528 C(5)       33.5206   52.7845    6.4543 C.ar      1 UNK         0.0000 
   4529 C(6)       33.5153   53.0973    5.1025 C.ar      1 UNK         0.0000 
   4530 C(7)       35.4884   53.2698    2.0327 C.2       1 UNK         0.0000 
   4531 C(8)       35.0475   53.7024    0.6600 C.3       1 UNK         0.0000 
   4532 H(1)       36.5198   51.7865    4.2200 H         1 UNK         0.0000 
   4533 H(2)       36.5371   51.2335    6.6077 H         1 UNK         0.0000 
   4534 H(3)       32.6774   53.0545    7.0780 H         1 UNK         0.0000 
   4535 H(4)       32.6647   53.6104    4.6710 H         1 UNK         0.0000 
   4536 H(5)       33.8075   51.8868    8.7451 H         1 UNK         0.0000 
   4537 H(6)       33.5716   53.3617    2.6087 H         1 UNK         0.0000 
   4538 H(7)       35.1258   52.8780    0.0000 H         1 UNK         0.0000 
   4539 H(8)       34.0507   54.0596    0.6397 H         1 UNK         0.0000 
   4540 H(9)       35.7280   54.4255    0.2920 H         1 UNK         0.0000 
   4541 O(1)       37.4044   63.1478    5.1545 O.3       1 UNK         0.0000 
   4542 O(2)       35.4066   56.9790    5.0387 O.2       1 UNK         0.0000 
   4543 N(1)       37.5878   57.5834    5.2264 N.am      1 UNK         0.0000 
   4544 C(1)       37.4883   58.9918    5.1752 C.ar      1 UNK         0.0000 
   4545 C(2)       36.4062   59.6800    4.6269 C.ar      1 UNK         0.0000 
   4546 C(3)       36.3991   61.0718    4.6234 C.ar      1 UNK         0.0000 
   4547 C(4)       37.4692   61.7864    5.1557 C.ar      1 UNK         0.0000 
   4548 C(5)       38.5648   61.0985    5.6759 C.ar      1 UNK         0.0000 
   4549 C(6)       38.5701   59.7110    5.6846 C.ar      1 UNK         0.0000 
   4550 C(7)       36.5970   56.6781    5.1796 C.2       1 UNK         0.0000 
   4551 C(8)       37.0379   55.2439    5.3006 C.3       1 UNK         0.0000 
   4552 H(1)       35.5656   59.1375    4.2122 H         1 UNK         0.0000 
   4553 H(2)       35.5483   61.5883    4.1963 H         1 UNK         0.0000 
   4554 H(3)       39.4079   61.6478    6.0762 H         1 UNK         0.0000 
   4555 H(4)       39.4207   59.1775    6.0906 H         1 UNK         0.0000 
   4556 H(5)       38.2779   63.5304    5.3025 H         1 UNK         0.0000 
   4557 H(6)       38.5137   57.2199    5.3956 H         1 UNK         0.0000 
   4558 H(7)       36.9596   54.7808    4.3514 H         1 UNK         0.0000 
   4559 H(8)       38.0346   55.1458    5.6446 H         1 UNK         0.0000 
   4560 H(9)       36.3574   54.7263    5.9254 H         1 UNK         0.0000 
   4561 O(1)       34.6613   71.3634    6.2473 O.3       1 UNK         0.0000 
   4562 O(2)       32.6635   70.1233   12.2913 O.2       1 UNK         0.0000 
   4563 N(1)       34.8447   70.0726   11.6604 N.am      1 UNK         0.0000 
   4564 C(1)       34.7452   70.4316   10.2975 C.ar      1 UNK         0.0000 
   4565 C(2)       33.6631   71.1174    9.7463 C.ar      1 UNK         0.0000 
   4566 C(3)       33.6560   71.4262    8.3892 C.ar      1 UNK         0.0000 
   4567 C(4)       34.7260   71.0635    7.5752 C.ar      1 UNK         0.0000 
   4568 C(5)       35.8217   70.4052    8.1323 C.ar      1 UNK         0.0000 
   4569 C(6)       35.8270   70.0923    9.4841 C.ar      1 UNK         0.0000 
   4570 C(7)       33.8539   69.9198   12.5539 C.2       1 UNK         0.0000 
   4571 C(8)       34.2947   69.4872   13.9266 C.3       1 UNK         0.0000 
   4572 H(1)       32.8225   71.4031   10.3666 H         1 UNK         0.0000 
   4573 H(2)       32.8052   71.9561    7.9789 H         1 UNK         0.0000 
   4574 H(3)       36.6648   70.1351    7.5086 H         1 UNK         0.0000 
   4575 H(4)       36.6776   69.5792    9.9156 H         1 UNK         0.0000 
   4576 H(5)       35.5348   71.3028    5.8415 H         1 UNK         0.0000 
   4577 H(6)       35.7706   69.8279   11.9779 H         1 UNK         0.0000 
   4578 H(7)       34.2165   70.3116   14.5866 H         1 UNK         0.0000 
   4579 H(8)       35.2915   69.1300   13.9469 H         1 UNK         0.0000 
   4580 H(9)       33.6143   68.7641   14.2946 H         1 UNK         0.0000 
   4581 O(1)       39.0148   60.0419    9.4321 O.3       1 UNK         0.0000 
   4582 O(2)       41.0126   66.2106    9.5479 O.2       1 UNK         0.0000 
   4583 N(1)       38.8315   65.6062    9.3602 N.am      1 UNK         0.0000 
   4584 C(1)       38.9310   64.1978    9.4114 C.ar      1 UNK         0.0000 
   4585 C(2)       40.0131   63.5096    9.9597 C.ar      1 UNK         0.0000 
   4586 C(3)       40.0201   62.1178    9.9633 C.ar      1 UNK         0.0000 
   4587 C(4)       38.9501   61.4032    9.4309 C.ar      1 UNK         0.0000 
   4588 C(5)       37.8545   62.0911    8.9107 C.ar      1 UNK         0.0000 
   4589 C(6)       37.8492   63.4786    8.9020 C.ar      1 UNK         0.0000 
   4590 C(7)       39.8223   66.5115    9.4070 C.2       1 UNK         0.0000 
   4591 C(8)       39.3814   67.9457    9.2860 C.3       1 UNK         0.0000 
   4592 H(1)       40.8536   64.0521   10.3744 H         1 UNK         0.0000 
   4593 H(2)       40.8710   61.6013   10.3903 H         1 UNK         0.0000 
   4594 H(3)       37.0113   61.5418    8.5104 H         1 UNK         0.0000 
   4595 H(4)       36.9986   64.0121    8.4961 H         1 UNK         0.0000 
   4596 H(5)       38.1414   59.6593    9.2841 H         1 UNK         0.0000 
   4597 H(6)       37.9055   65.9697    9.1910 H         1 UNK         0.0000 
   4598 H(7)       39.4597   68.4088   10.2352 H         1 UNK         0.0000 
   4599 H(8)       38.3846   68.0438    8.9420 H         1 UNK         0.0000 
   4600 H(9)       40.0619   68.4633    8.6612 H         1 UNK         0.0000 
   4601 O(1)       29.1947   72.2396   15.5017 O.3       1 UNK         0.0000 
   4602 O(2)       31.1925   73.4796    9.4577 O.2       1 UNK         0.0000 
   4603 N(1)       29.0114   73.5303   10.0886 N.am      1 UNK         0.0000 
   4604 C(1)       29.1108   73.1714   11.4515 C.ar      1 UNK         0.0000 
   4605 C(2)       30.1930   72.4855   12.0027 C.ar      1 UNK         0.0000 
   4606 C(3)       30.2000   72.1767   13.3599 C.ar      1 UNK         0.0000 
   4607 C(4)       29.1300   72.5394   14.1738 C.ar      1 UNK         0.0000 
   4608 C(5)       28.0344   73.1977   13.6167 C.ar      1 UNK         0.0000 
   4609 C(6)       28.0291   73.5106   12.2649 C.ar      1 UNK         0.0000 
   4610 C(7)       30.0022   73.6831    9.1951 C.2       1 UNK         0.0000 
   4611 C(8)       29.5613   74.1157    7.8224 C.3       1 UNK         0.0000 
   4612 H(1)       31.0335   72.1998   11.3824 H         1 UNK         0.0000 
   4613 H(2)       31.0508   71.6468   13.7701 H         1 UNK         0.0000 
   4614 H(3)       27.1912   73.4678   14.2404 H         1 UNK         0.0000 
   4615 H(4)       27.1785   74.0237   11.8334 H         1 UNK         0.0000 
   4616 H(5)       28.3213   72.3001   15.9075 H         1 UNK         0.0000 
   4617 H(6)       28.0854   73.7750    9.7711 H         1 UNK         0.0000 
   4618 H(7)       29.6396   73.2913    7.1624 H         1 UNK         0.0000 
   4619 H(8)       28.5645   74.4729    7.8021 H         1 UNK         0.0000 
   4620 H(9)       30.2418   74.8388    7.4544 H         1 UNK         0.0000 
   4621 O(1)       30.3274   68.8787   12.3169 O.3       1 UNK         0.0000 
   4622 O(2)       28.3296   62.7099   12.2011 O.2       1 UNK         0.0000 
   4623 N(1)       30.5108   63.3143   12.3888 N.am      1 UNK         0.0000 
   4624 C(1)       30.4113   64.7228   12.3376 C.ar      1 UNK         0.0000 
   4625 C(2)       29.3292   65.4110   11.7893 C.ar      1 UNK         0.0000 
   4626 C(3)       29.3221   66.8028   11.7858 C.ar      1 UNK         0.0000 
   4627 C(4)       30.3922   67.5174   12.3181 C.ar      1 UNK         0.0000 
   4628 C(5)       31.4878   66.8295   12.8383 C.ar      1 UNK         0.0000 
   4629 C(6)       31.4931   65.4419   12.8470 C.ar      1 UNK         0.0000 
   4630 C(7)       29.5200   62.4090   12.3420 C.2       1 UNK         0.0000 
   4631 C(8)       29.9609   60.9749   12.4630 C.3       1 UNK         0.0000 
   4632 H(1)       28.4886   64.8685   11.3746 H         1 UNK         0.0000 
   4633 H(2)       28.4713   67.3193   11.3587 H         1 UNK         0.0000 
   4634 H(3)       32.3309   67.3787   13.2386 H         1 UNK         0.0000 
   4635 H(4)       32.3437   64.9084   13.2530 H         1 UNK         0.0000 
   4636 H(5)       31.2009   69.2613   12.4649 H         1 UNK         0.0000 
   4637 H(6)       31.4367   62.9509   12.5580 H         1 UNK         0.0000 
   4638 H(7)       29.8826   60.5118   11.5138 H         1 UNK         0.0000 
   4639 H(8)       30.9576   60.8768   12.8070 H         1 UNK         0.0000 
   4640 H(9)       29.2804   60.4572   13.0878 H         1 UNK         0.0000 
   4641 O(1)       34.6613   77.0943   13.4097 O.3       1 UNK         0.0000 
   4642 O(2)       32.6635   75.8542   19.4537 O.2       1 UNK         0.0000 
   4643 N(1)       34.8447   75.8036   18.8228 N.am      1 UNK         0.0000 
   4644 C(1)       34.7452   76.1625   17.4599 C.ar      1 UNK         0.0000 
   4645 C(2)       33.6631   76.8484   16.9087 C.ar      1 UNK         0.0000 
   4646 C(3)       33.6560   77.1572   15.5516 C.ar      1 UNK         0.0000 
   4647 C(4)       34.7260   76.7945   14.7376 C.ar      1 UNK         0.0000 
   4648 C(5)       35.8217   76.1361   15.2947 C.ar      1 UNK         0.0000 
   4649 C(6)       35.8270   75.8232   16.6465 C.ar      1 UNK         0.0000 
   4650 C(7)       33.8539   75.6508   19.7163 C.2       1 UNK         0.0000 
   4651 C(8)       34.2947   75.2181   21.0890 C.3       1 UNK         0.0000 
   4652 H(1)       32.8225   77.1341   17.5290 H         1 UNK         0.0000 
   4653 H(2)       32.8052   77.6871   15.1413 H         1 UNK         0.0000 
   4654 H(3)       36.6648   75.8660   14.6710 H         1 UNK         0.0000 
   4655 H(4)       36.6776   75.3102   17.0780 H         1 UNK         0.0000 
   4656 H(5)       35.5348   77.0338   13.0039 H         1 UNK         0.0000 
   4657 H(6)       35.7706   75.5589   19.1403 H         1 UNK         0.0000 
   4658 H(7)       34.2165   76.0426   21.7490 H         1 UNK         0.0000 
   4659 H(8)       35.2915   74.8610   21.1093 H         1 UNK         0.0000 
   4660 H(9)       33.6143   74.4950   21.4570 H         1 UNK         0.0000 
   4661 O(1)       39.0148   65.7728   16.5945 O.3       1 UNK         0.0000 
   4662 O(2)       41.0126   71.9416   16.7103 O.2       1 UNK         0.0000 
   4663 N(1)       38.8315   71.3372   16.5226 N.am      1 UNK         0.0000 
   4664 C(1)       38.9310   69.9288   16.5738 C.ar      1 UNK         0.0000 
   4665 C(2)       40.0131   69.2405   17.1221 C.ar      1 UNK         0.0000 
   4666 C(3)       40.0201   67.8487   17.1257 C.ar      1 UNK         0.0000 
   4667 C(4)       38.9501   67.1341   16.5933 C.ar      1 UNK         0.0000 
   4668 C(5)       37.8545   67.8221   16.0731 C.ar      1 UNK         0.0000 
   4669 C(6)       37.8492   69.2096   16.0644 C.ar      1 UNK         0.0000 
   4670 C(7)       39.8223   72.2425   16.5694 C.2       1 UNK         0.0000 
   4671 C(8)       39.3814   73.6766   16.4484 C.3       1 UNK         0.0000 
   4672 H(1)       40.8536   69.7831   17.5368 H         1 UNK         0.0000 
   4673 H(2)       40.8710   67.3323   17.5527 H         1 UNK         0.0000 
   4674 H(3)       37.0113   67.2728   15.6728 H         1 UNK         0.0000 
   4675 H(4)       36.9986   69.7431   15.6585 H         1 UNK         0.0000 
   4676 H(5)       38.1414   65.3902   16.4465 H         1 UNK         0.0000 
   4677 H(6)       37.9055   71.7007   16.3534 H         1 UNK         0.0000 
   4678 H(7)       39.4597   74.1397   17.3976 H         1 UNK         0.0000 
   4679 H(8)       38.3846   73.7748   16.1044 H         1 UNK         0.0000 
   4680 H(9)       40.0619   74.1943   15.8236 H         1 UNK         0.0000 
   4681 O(1)       34.6809   63.2882   22.6641 O.3       1 UNK         0.0000 
   4682 O(2)       36.6788   64.5283   16.6201 O.2       1 UNK         0.0000 
   4683 N(1)       34.4976   64.5789   17.2510 N.am      1 UNK         0.0000 
   4684 C(1)       34.5971   64.2200   18.6139 C.ar      1 UNK         0.0000 
   4685 C(2)       35.6792   63.5341   19.1651 C.ar      1 UNK         0.0000 
   4686 C(3)       35.6862   63.2253   20.5223 C.ar      1 UNK         0.0000 
   4687 C(4)       34.6162   63.5880   21.3362 C.ar      1 UNK         0.0000 
   4688 C(5)       33.5206   64.2464   20.7791 C.ar      1 UNK         0.0000 
   4689 C(6)       33.5153   64.5593   19.4273 C.ar      1 UNK         0.0000 
   4690 C(7)       35.4884   64.7317   16.3575 C.2       1 UNK         0.0000 
   4691 C(8)       35.0475   65.1644   14.9848 C.3       1 UNK         0.0000 
   4692 H(1)       36.5198   63.2484   18.5448 H         1 UNK         0.0000 
   4693 H(2)       36.5371   62.6954   20.9325 H         1 UNK         0.0000 
   4694 H(3)       32.6774   64.5165   21.4028 H         1 UNK         0.0000 
   4695 H(4)       32.6647   65.0723   18.9958 H         1 UNK         0.0000 
   4696 H(5)       33.8075   63.3487   23.0699 H         1 UNK         0.0000 
   4697 H(6)       33.5716   64.8236   16.9335 H         1 UNK         0.0000 
   4698 H(7)       35.1258   64.3399   14.3248 H         1 UNK         0.0000 
   4699 H(8)       34.0507   65.5215   14.9645 H         1 UNK         0.0000 
   4700 H(9)       35.7280   65.8875   14.6168 H         1 UNK         0.0000 
   4701 O(1)       37.4044   74.6097   19.4793 O.3       1 UNK         0.0000 
   4702 O(2)       35.4066   68.4409   19.3635 O.2       1 UNK         0.0000 
   4703 N(1)       37.5878   69.0453   19.5512 N.am      1 UNK         0.0000 
   4704 C(1)       37.4883   70.4537   19.5000 C.ar      1 UNK         0.0000 
   4705 C(2)       36.4062   71.1420   18.9517 C.ar      1 UNK         0.0000 
   4706 C(3)       36.3991   72.5338   18.9482 C.ar      1 UNK         0.0000 
   4707 C(4)       37.4692   73.2484   19.4805 C.ar      1 UNK         0.0000 
   4708 C(5)       38.5648   72.5605   20.0007 C.ar      1 UNK         0.0000 
   4709 C(6)       38.5701   71.1729   20.0094 C.ar      1 UNK         0.0000 
   4710 C(7)       36.5970   68.1400   19.5044 C.2       1 UNK         0.0000 
   4711 C(8)       37.0379   66.7059   19.6254 C.3       1 UNK         0.0000 
   4712 H(1)       35.5656   70.5994   18.5370 H         1 UNK         0.0000 
   4713 H(2)       35.5483   73.0502   18.5211 H         1 UNK         0.0000 
   4714 H(3)       39.4079   73.1097   20.4010 H         1 UNK         0.0000 
   4715 H(4)       39.4207   70.6394   20.4154 H         1 UNK         0.0000 
   4716 H(5)       38.2779   74.9923   19.6273 H         1 UNK         0.0000 
   4717 H(6)       38.5137   68.6818   19.7204 H         1 UNK         0.0000 
   4718 H(7)       36.9596   66.2428   18.6762 H         1 UNK         0.0000 
   4719 H(8)       38.0346   66.6077   19.9694 H         1 UNK         0.0000 
   4720 H(9)       36.3574   66.1882   20.2502 H         1 UNK         0.0000 
   4721 O(1)       33.0706   68.1430   20.5721 O.3       1 UNK         0.0000 
   4722 O(2)       31.0727   66.9029   26.6161 O.2       1 UNK         0.0000 
   4723 N(1)       33.2539   66.8522   25.9852 N.am      1 UNK         0.0000 
   4724 C(1)       33.1544   67.2112   24.6223 C.ar      1 UNK         0.0000 
   4725 C(2)       32.0723   67.8970   24.0711 C.ar      1 UNK         0.0000 
   4726 C(3)       32.0652   68.2058   22.7140 C.ar      1 UNK         0.0000 
   4727 C(4)       33.1353   67.8431   21.9000 C.ar      1 UNK         0.0000 
   4728 C(5)       34.2309   67.1848   22.4571 C.ar      1 UNK         0.0000 
   4729 C(6)       34.2362   66.8719   23.8089 C.ar      1 UNK         0.0000 
   4730 C(7)       32.2631   66.6994   26.8787 C.2       1 UNK         0.0000 
   4731 C(8)       32.7040   66.2668   28.2514 C.3       1 UNK         0.0000 
   4732 H(1)       31.2317   68.1827   24.6914 H         1 UNK         0.0000 
   4733 H(2)       31.2144   68.7357   22.3037 H         1 UNK         0.0000 
   4734 H(3)       35.0740   66.9147   21.8334 H         1 UNK         0.0000 
   4735 H(4)       35.0868   66.3588   24.2404 H         1 UNK         0.0000 
   4736 H(5)       33.9440   68.0824   20.1663 H         1 UNK         0.0000 
   4737 H(6)       34.1798   66.6075   26.3027 H         1 UNK         0.0000 
   4738 H(7)       32.6257   67.0912   28.9114 H         1 UNK         0.0000 
   4739 H(8)       33.7007   65.9096   28.2717 H         1 UNK         0.0000 
   4740 H(9)       32.0235   65.5437   28.6194 H         1 UNK         0.0000 
   4741 O(1)       31.9378   71.5038   23.7569 O.3       1 UNK         0.0000 
   4742 O(2)       33.9356   77.6726   23.8727 O.2       1 UNK         0.0000 
   4743 N(1)       31.7545   77.0682   23.6850 N.am      1 UNK         0.0000 
   4744 C(1)       31.8540   75.6597   23.7362 C.ar      1 UNK         0.0000 
   4745 C(2)       32.9361   74.9715   24.2845 C.ar      1 UNK         0.0000 
   4746 C(3)       32.9431   73.5797   24.2881 C.ar      1 UNK         0.0000 
   4747 C(4)       31.8731   72.8651   23.7557 C.ar      1 UNK         0.0000 
   4748 C(5)       30.7775   73.5530   23.2355 C.ar      1 UNK         0.0000 
   4749 C(6)       30.7722   74.9406   23.2268 C.ar      1 UNK         0.0000 
   4750 C(7)       32.7453   77.9735   23.7318 C.2       1 UNK         0.0000 
   4751 C(8)       32.3044   79.4076   23.6108 C.3       1 UNK         0.0000 
   4752 H(1)       33.7766   75.5140   24.6992 H         1 UNK         0.0000 
   4753 H(2)       33.7940   73.0632   24.7151 H         1 UNK         0.0000 
   4754 H(3)       29.9343   73.0038   22.8352 H         1 UNK         0.0000 
   4755 H(4)       29.9216   75.4741   22.8209 H         1 UNK         0.0000 
   4756 H(5)       31.0644   71.1212   23.6089 H         1 UNK         0.0000 
   4757 H(6)       30.8285   77.4316   23.5158 H         1 UNK         0.0000 
   4758 H(7)       32.3827   79.8707   24.5600 H         1 UNK         0.0000 
   4759 H(8)       31.3076   79.5057   23.2668 H         1 UNK         0.0000 
   4760 H(9)       32.9849   79.9253   22.9860 H         1 UNK         0.0000 
   4761 O(1)       36.2717   66.5086    8.3393 O.3       1 UNK         0.0000 
   4762 O(2)       38.2695   67.7487    2.2953 O.2       1 UNK         0.0000 
   4763 N(1)       36.0884   67.7993    2.9262 N.am      1 UNK         0.0000 
   4764 C(1)       36.1878   67.4404    4.2891 C.ar      1 UNK         0.0000 
   4765 C(2)       37.2700   66.7545    4.8403 C.ar      1 UNK         0.0000 
   4766 C(3)       37.2770   66.4457    6.1975 C.ar      1 UNK         0.0000 
   4767 C(4)       36.2070   66.8084    7.0114 C.ar      1 UNK         0.0000 
   4768 C(5)       35.1114   67.4668    6.4543 C.ar      1 UNK         0.0000 
   4769 C(6)       35.1061   67.7797    5.1025 C.ar      1 UNK         0.0000 
   4770 C(7)       37.0792   67.9521    2.0327 C.2       1 UNK         0.0000 
   4771 C(8)       36.6383   68.3848    0.6600 C.3       1 UNK         0.0000 
   4772 H(1)       38.1105   66.4688    4.2200 H         1 UNK         0.0000 
   4773 H(2)       38.1278   65.9158    6.6077 H         1 UNK         0.0000 
   4774 H(3)       34.2682   67.7369    7.0780 H         1 UNK         0.0000 
   4775 H(4)       34.2555   68.2927    4.6710 H         1 UNK         0.0000 
   4776 H(5)       35.3983   66.5691    8.7451 H         1 UNK         0.0000 
   4777 H(6)       35.1624   68.0440    2.6087 H         1 UNK         0.0000 
   4778 H(7)       36.7166   67.5603    0.0000 H         1 UNK         0.0000 
   4779 H(8)       35.6415   68.7419    0.6397 H         1 UNK         0.0000 
   4780 H(9)       37.3188   69.1079    0.2920 H         1 UNK         0.0000 
   4781 O(1)       38.9952   77.8301    5.1545 O.3       1 UNK         0.0000 
   4782 O(2)       36.9974   71.6613    5.0387 O.2       1 UNK         0.0000 
   4783 N(1)       39.1786   72.2657    5.2264 N.am      1 UNK         0.0000 
   4784 C(1)       39.0791   73.6741    5.1752 C.ar      1 UNK         0.0000 
   4785 C(2)       37.9969   74.3624    4.6269 C.ar      1 UNK         0.0000 
   4786 C(3)       37.9899   75.7542    4.6234 C.ar      1 UNK         0.0000 
   4787 C(4)       39.0599   76.4688    5.1557 C.ar      1 UNK         0.0000 
   4788 C(5)       40.1555   75.7809    5.6759 C.ar      1 UNK         0.0000 
   4789 C(6)       40.1609   74.3933    5.6846 C.ar      1 UNK         0.0000 
   4790 C(7)       38.1878   71.3604    5.1796 C.2       1 UNK         0.0000 
   4791 C(8)       38.6286   69.9263    5.3006 C.3       1 UNK         0.0000 
   4792 H(1)       37.1564   73.8198    4.2122 H         1 UNK         0.0000 
   4793 H(2)       37.1391   76.2706    4.1963 H         1 UNK         0.0000 
   4794 H(3)       40.9987   76.3301    6.0762 H         1 UNK         0.0000 
   4795 H(4)       41.0115   73.8598    6.0906 H         1 UNK         0.0000 
   4796 H(5)       39.8687   78.2127    5.3025 H         1 UNK         0.0000 
   4797 H(6)       40.1045   71.9022    5.3956 H         1 UNK         0.0000 
   4798 H(7)       38.5504   69.4632    4.3514 H         1 UNK         0.0000 
   4799 H(8)       39.6254   69.8281    5.6446 H         1 UNK         0.0000 
   4800 H(9)       37.9482   69.4086    5.9254 H         1 UNK         0.0000 
   4801 O(1)       35.3752   12.6340    6.2473 O.3       1 UNK         0.0000 
   4802 O(2)       33.3774   11.3940   12.2913 O.2       1 UNK         0.0000 
   4803 N(1)       35.5585   11.3433   11.6604 N.am      1 UNK         0.0000 
   4804 C(1)       35.4591   11.7022   10.2975 C.ar      1 UNK         0.0000 
   4805 C(2)       34.3769   12.3881    9.7463 C.ar      1 UNK         0.0000 
   4806 C(3)       34.3699   12.6969    8.3892 C.ar      1 UNK         0.0000 
   4807 C(4)       35.4399   12.3342    7.5752 C.ar      1 UNK         0.0000 
   4808 C(5)       36.5355   11.6758    8.1323 C.ar      1 UNK         0.0000 
   4809 C(6)       36.5408   11.3630    9.4841 C.ar      1 UNK         0.0000 
   4810 C(7)       34.5678   11.1905   12.5539 C.2       1 UNK         0.0000 
   4811 C(8)       35.0086   10.7579   13.9266 C.3       1 UNK         0.0000 
   4812 H(1)       33.5364   12.6738   10.3666 H         1 UNK         0.0000 
   4813 H(2)       33.5191   13.2268    7.9789 H         1 UNK         0.0000 
   4814 H(3)       37.3787   11.4057    7.5086 H         1 UNK         0.0000 
   4815 H(4)       37.3914   10.8499    9.9156 H         1 UNK         0.0000 
   4816 H(5)       36.2486   12.5735    5.8415 H         1 UNK         0.0000 
   4817 H(6)       36.4845   11.0986   11.9779 H         1 UNK         0.0000 
   4818 H(7)       34.9303   11.5823   14.5866 H         1 UNK         0.0000 
   4819 H(8)       36.0054   10.4007   13.9469 H         1 UNK         0.0000 
   4820 H(9)       34.3281   10.0347   14.2946 H         1 UNK         0.0000 
   4821 O(1)       39.7287    1.3125    9.4321 O.3       1 UNK         0.0000 
   4822 O(2)       41.7265    7.4813    9.5479 O.2       1 UNK         0.0000 
   4823 N(1)       39.5454    6.8769    9.3602 N.am      1 UNK         0.0000 
   4824 C(1)       39.6448    5.4685    9.4114 C.ar      1 UNK         0.0000 
   4825 C(2)       40.7270    4.7803    9.9597 C.ar      1 UNK         0.0000 
   4826 C(3)       40.7340    3.3885    9.9633 C.ar      1 UNK         0.0000 
   4827 C(4)       39.6640    2.6738    9.4309 C.ar      1 UNK         0.0000 
   4828 C(5)       38.5684    3.3618    8.9107 C.ar      1 UNK         0.0000 
   4829 C(6)       38.5631    4.7493    8.9020 C.ar      1 UNK         0.0000 
   4830 C(7)       40.5361    7.7822    9.4070 C.2       1 UNK         0.0000 
   4831 C(8)       40.0953    9.2163    9.2860 C.3       1 UNK         0.0000 
   4832 H(1)       41.5675    5.3228   10.3744 H         1 UNK         0.0000 
   4833 H(2)       41.5848    2.8720   10.3903 H         1 UNK         0.0000 
   4834 H(3)       37.7252    2.8125    8.5104 H         1 UNK         0.0000 
   4835 H(4)       37.7124    5.2828    8.4961 H         1 UNK         0.0000 
   4836 H(5)       38.8553    0.9299    9.2841 H         1 UNK         0.0000 
   4837 H(6)       38.6194    7.2404    9.1910 H         1 UNK         0.0000 
   4838 H(7)       40.1735    9.6795   10.2352 H         1 UNK         0.0000 
   4839 H(8)       39.0985    9.3145    8.9420 H         1 UNK         0.0000 
   4840 H(9)       40.7758    9.7340    8.6612 H         1 UNK         0.0000 
   4841 O(1)       29.9086   13.5102   15.5017 O.3       1 UNK         0.0000 
   4842 O(2)       31.9064   14.7503    9.4577 O.2       1 UNK         0.0000 
   4843 N(1)       29.7253   14.8009   10.0886 N.am      1 UNK         0.0000 
   4844 C(1)       29.8247   14.4420   11.4515 C.ar      1 UNK         0.0000 
   4845 C(2)       30.9069   13.7561   12.0027 C.ar      1 UNK         0.0000 
   4846 C(3)       30.9139   13.4474   13.3599 C.ar      1 UNK         0.0000 
   4847 C(4)       29.8439   13.8100   14.1738 C.ar      1 UNK         0.0000 
   4848 C(5)       28.7483   14.4684   13.6167 C.ar      1 UNK         0.0000 
   4849 C(6)       28.7430   14.7813   12.2649 C.ar      1 UNK         0.0000 
   4850 C(7)       30.7160   14.9538    9.1951 C.2       1 UNK         0.0000 
   4851 C(8)       30.2752   15.3864    7.8224 C.3       1 UNK         0.0000 
   4852 H(1)       31.7474   13.4705   11.3824 H         1 UNK         0.0000 
   4853 H(2)       31.7647   12.9175   13.7701 H         1 UNK         0.0000 
   4854 H(3)       27.9051   14.7385   14.2404 H         1 UNK         0.0000 
   4855 H(4)       27.8923   15.2944   11.8334 H         1 UNK         0.0000 
   4856 H(5)       29.0351   13.5707   15.9075 H         1 UNK         0.0000 
   4857 H(6)       28.7993   15.0457    9.7711 H         1 UNK         0.0000 
   4858 H(7)       30.3534   14.5620    7.1624 H         1 UNK         0.0000 
   4859 H(8)       29.2784   15.7436    7.8021 H         1 UNK         0.0000 
   4860 H(9)       30.9557   16.1095    7.4544 H         1 UNK         0.0000 
   4861 O(1)       31.0413   10.1494   12.3169 O.3       1 UNK         0.0000 
   4862 O(2)       29.0435    3.9806   12.2011 O.2       1 UNK         0.0000 
   4863 N(1)       31.2246    4.5850   12.3888 N.am      1 UNK         0.0000 
   4864 C(1)       31.1252    5.9935   12.3376 C.ar      1 UNK         0.0000 
   4865 C(2)       30.0430    6.6817   11.7893 C.ar      1 UNK         0.0000 
   4866 C(3)       30.0360    8.0735   11.7858 C.ar      1 UNK         0.0000 
   4867 C(4)       31.1060    8.7881   12.3181 C.ar      1 UNK         0.0000 
   4868 C(5)       32.2016    8.1002   12.8383 C.ar      1 UNK         0.0000 
   4869 C(6)       32.2069    6.7126   12.8470 C.ar      1 UNK         0.0000 
   4870 C(7)       30.2339    3.6797   12.3420 C.2       1 UNK         0.0000 
   4871 C(8)       30.6747    2.2456   12.4630 C.3       1 UNK         0.0000 
   4872 H(1)       29.2025    6.1391   11.3746 H         1 UNK         0.0000 
   4873 H(2)       29.1852    8.5900   11.3587 H         1 UNK         0.0000 
   4874 H(3)       33.0448    8.6494   13.2386 H         1 UNK         0.0000 
   4875 H(4)       33.0576    6.1791   13.2530 H         1 UNK         0.0000 
   4876 H(5)       31.9147   10.5320   12.4649 H         1 UNK         0.0000 
   4877 H(6)       32.1506    4.2215   12.5580 H         1 UNK         0.0000 
   4878 H(7)       30.5965    1.7825   11.5138 H         1 UNK         0.0000 
   4879 H(8)       31.6715    2.1474   12.8070 H         1 UNK         0.0000 
   4880 H(9)       29.9942    1.7279   13.0878 H         1 UNK         0.0000 
   4881 O(1)       35.3752   18.3650   13.4097 O.3       1 UNK         0.0000 
   4882 O(2)       33.3774   17.1249   19.4537 O.2       1 UNK         0.0000 
   4883 N(1)       35.5585   17.0743   18.8228 N.am      1 UNK         0.0000 
   4884 C(1)       35.4591   17.4332   17.4599 C.ar      1 UNK         0.0000 
   4885 C(2)       34.3769   18.1191   16.9087 C.ar      1 UNK         0.0000 
   4886 C(3)       34.3699   18.4278   15.5516 C.ar      1 UNK         0.0000 
   4887 C(4)       35.4399   18.0652   14.7376 C.ar      1 UNK         0.0000 
   4888 C(5)       36.5355   17.4068   15.2947 C.ar      1 UNK         0.0000 
   4889 C(6)       36.5408   17.0939   16.6465 C.ar      1 UNK         0.0000 
   4890 C(7)       34.5678   16.9215   19.7163 C.2       1 UNK         0.0000 
   4891 C(8)       35.0086   16.4888   21.0890 C.3       1 UNK         0.0000 
   4892 H(1)       33.5364   18.4047   17.5290 H         1 UNK         0.0000 
   4893 H(2)       33.5191   18.9577   15.1413 H         1 UNK         0.0000 
   4894 H(3)       37.3787   17.1367   14.6710 H         1 UNK         0.0000 
   4895 H(4)       37.3914   16.5809   17.0780 H         1 UNK         0.0000 
   4896 H(5)       36.2486   18.3045   13.0039 H         1 UNK         0.0000 
   4897 H(6)       36.4845   16.8295   19.1403 H         1 UNK         0.0000 
   4898 H(7)       34.9303   17.3133   21.7490 H         1 UNK         0.0000 
   4899 H(8)       36.0054   16.1317   21.1093 H         1 UNK         0.0000 
   4900 H(9)       34.3281   15.7657   21.4570 H         1 UNK         0.0000 
   4901 O(1)       39.7287    7.0435   16.5945 O.3       1 UNK         0.0000 
   4902 O(2)       41.7265   13.2123   16.7103 O.2       1 UNK         0.0000 
   4903 N(1)       39.5454   12.6079   16.5226 N.am      1 UNK         0.0000 
   4904 C(1)       39.6448   11.1994   16.5738 C.ar      1 UNK         0.0000 
   4905 C(2)       40.7270   10.5112   17.1221 C.ar      1 UNK         0.0000 
   4906 C(3)       40.7340    9.1194   17.1257 C.ar      1 UNK         0.0000 
   4907 C(4)       39.6640    8.4048   16.5933 C.ar      1 UNK         0.0000 
   4908 C(5)       38.5684    9.0927   16.0731 C.ar      1 UNK         0.0000 
   4909 C(6)       38.5631   10.4803   16.0644 C.ar      1 UNK         0.0000 
   4910 C(7)       40.5361   13.5132   16.5694 C.2       1 UNK         0.0000 
   4911 C(8)       40.0953   14.9473   16.4484 C.3       1 UNK         0.0000 
   4912 H(1)       41.5675   11.0538   17.5368 H         1 UNK         0.0000 
   4913 H(2)       41.5848    8.6029   17.5527 H         1 UNK         0.0000 
   4914 H(3)       37.7252    8.5435   15.6728 H         1 UNK         0.0000 
   4915 H(4)       37.7124   11.0138   15.6585 H         1 UNK         0.0000 
   4916 H(5)       38.8553    6.6609   16.4465 H         1 UNK         0.0000 
   4917 H(6)       38.6194   12.9713   16.3534 H         1 UNK         0.0000 
   4918 H(7)       40.1735   15.4104   17.3976 H         1 UNK         0.0000 
   4919 H(8)       39.0985   15.0455   16.1044 H         1 UNK         0.0000 
   4920 H(9)       40.7758   15.4650   15.8236 H         1 UNK         0.0000 
   4921 O(1)       35.3948    4.5589   22.6641 O.3       1 UNK         0.0000 
   4922 O(2)       37.3926    5.7989   16.6201 O.2       1 UNK         0.0000 
   4923 N(1)       35.2115    5.8496   17.2510 N.am      1 UNK         0.0000 
   4924 C(1)       35.3109    5.4907   18.6139 C.ar      1 UNK         0.0000 
   4925 C(2)       36.3931    4.8048   19.1651 C.ar      1 UNK         0.0000 
   4926 C(3)       36.4001    4.4960   20.5223 C.ar      1 UNK         0.0000 
   4927 C(4)       35.3301    4.8587   21.3362 C.ar      1 UNK         0.0000 
   4928 C(5)       34.2345    5.5171   20.7791 C.ar      1 UNK         0.0000 
   4929 C(6)       34.2292    5.8299   19.4273 C.ar      1 UNK         0.0000 
   4930 C(7)       36.2022    6.0024   16.3575 C.2       1 UNK         0.0000 
   4931 C(8)       35.7614    6.4350   14.9848 C.3       1 UNK         0.0000 
   4932 H(1)       37.2336    4.5191   18.5448 H         1 UNK         0.0000 
   4933 H(2)       37.2509    3.9661   20.9325 H         1 UNK         0.0000 
   4934 H(3)       33.3913    5.7872   21.4028 H         1 UNK         0.0000 
   4935 H(4)       33.3786    6.3430   18.9958 H         1 UNK         0.0000 
   4936 H(5)       34.5214    4.6194   23.0699 H         1 UNK         0.0000 
   4937 H(6)       34.2855    6.0943   16.9335 H         1 UNK         0.0000 
   4938 H(7)       35.8397    5.6106   14.3248 H         1 UNK         0.0000 
   4939 H(8)       34.7646    6.7922   14.9645 H         1 UNK         0.0000 
   4940 H(9)       36.4419    7.1582   14.6168 H         1 UNK         0.0000 
   4941 O(1)       38.1183   15.8804   19.4793 O.3       1 UNK         0.0000 
   4942 O(2)       36.1205    9.7116   19.3635 O.2       1 UNK         0.0000 
   4943 N(1)       38.3016   10.3160   19.5512 N.am      1 UNK         0.0000 
   4944 C(1)       38.2022   11.7244   19.5000 C.ar      1 UNK         0.0000 
   4945 C(2)       37.1200   12.4126   18.9517 C.ar      1 UNK         0.0000 
   4946 C(3)       37.1130   13.8044   18.9482 C.ar      1 UNK         0.0000 
   4947 C(4)       38.1830   14.5191   19.4805 C.ar      1 UNK         0.0000 
   4948 C(5)       39.2786   13.8311   20.0007 C.ar      1 UNK         0.0000 
   4949 C(6)       39.2839   12.4436   20.0094 C.ar      1 UNK         0.0000 
   4950 C(7)       37.3109    9.4107   19.5044 C.2       1 UNK         0.0000 
   4951 C(8)       37.7517    7.9766   19.6254 C.3       1 UNK         0.0000 
   4952 H(1)       36.2795   11.8701   18.5370 H         1 UNK         0.0000 
   4953 H(2)       36.2622   14.3209   18.5211 H         1 UNK         0.0000 
   4954 H(3)       40.1218   14.3804   20.4010 H         1 UNK         0.0000 
   4955 H(4)       40.1346   11.9101   20.4154 H         1 UNK         0.0000 
   4956 H(5)       38.9917   16.2630   19.6273 H         1 UNK         0.0000 
   4957 H(6)       39.2276    9.9525   19.7204 H         1 UNK         0.0000 
   4958 H(7)       37.6735    7.5134   18.6762 H         1 UNK         0.0000 
   4959 H(8)       38.7485    7.8784   19.9694 H         1 UNK         0.0000 
   4960 H(9)       37.0712    7.4589   20.2502 H         1 UNK         0.0000 
   4961 O(1)       33.7844    9.4136   20.5721 O.3       1 UNK         0.0000 
   4962 O(2)       31.7866    8.1736   26.6161 O.2       1 UNK         0.0000 
   4963 N(1)       33.9677    8.1229   25.9852 N.am      1 UNK         0.0000 
   4964 C(1)       33.8683    8.4818   24.6223 C.ar      1 UNK         0.0000 
   4965 C(2)       32.7861    9.1677   24.0711 C.ar      1 UNK         0.0000 
   4966 C(3)       32.7791    9.4765   22.7140 C.ar      1 UNK         0.0000 
   4967 C(4)       33.8491    9.1138   21.9000 C.ar      1 UNK         0.0000 
   4968 C(5)       34.9447    8.4554   22.4571 C.ar      1 UNK         0.0000 
   4969 C(6)       34.9500    8.1426   23.8089 C.ar      1 UNK         0.0000 
   4970 C(7)       32.9770    7.9701   26.8787 C.2       1 UNK         0.0000 
   4971 C(8)       33.4178    7.5375   28.2514 C.3       1 UNK         0.0000 
   4972 H(1)       31.9456    9.4534   24.6914 H         1 UNK         0.0000 
   4973 H(2)       31.9283   10.0064   22.3037 H         1 UNK         0.0000 
   4974 H(3)       35.7879    8.1853   21.8334 H         1 UNK         0.0000 
   4975 H(4)       35.8007    7.6295   24.2404 H         1 UNK         0.0000 
   4976 H(5)       34.6579    9.3531   20.1663 H         1 UNK         0.0000 
   4977 H(6)       34.8937    7.8782   26.3027 H         1 UNK         0.0000 
   4978 H(7)       33.3396    8.3619   28.9114 H         1 UNK         0.0000 
   4979 H(8)       34.4146    7.1803   28.2717 H         1 UNK         0.0000 
   4980 H(9)       32.7373    6.8143   28.6194 H         1 UNK         0.0000 
   4981 O(1)       32.6517   12.7745   23.7569 O.3       1 UNK         0.0000 
   4982 O(2)       34.6495   18.9433   23.8727 O.2       1 UNK         0.0000 
   4983 N(1)       32.4684   18.3389   23.6850 N.am      1 UNK         0.0000 
   4984 C(1)       32.5678   16.9304   23.7362 C.ar      1 UNK         0.0000 
   4985 C(2)       33.6500   16.2422   24.2845 C.ar      1 UNK         0.0000 
   4986 C(3)       33.6570   14.8504   24.2881 C.ar      1 UNK         0.0000 
   4987 C(4)       32.5870   14.1358   23.7557 C.ar      1 UNK         0.0000 
   4988 C(5)       31.4914   14.8237   23.2355 C.ar      1 UNK         0.0000 
   4989 C(6)       31.4861   16.2112   23.2268 C.ar      1 UNK         0.0000 
   4990 C(7)       33.4591   19.2442   23.7318 C.2       1 UNK         0.0000 
   4991 C(8)       33.0183   20.6783   23.6108 C.3       1 UNK         0.0000 
   4992 H(1)       34.4905   16.7847   24.6992 H         1 UNK         0.0000 
   4993 H(2)       34.5078   14.3339   24.7151 H         1 UNK         0.0000 
   4994 H(3)       30.6482   14.2744   22.8352 H         1 UNK         0.0000 
   4995 H(4)       30.6354   16.7448   22.8209 H         1 UNK         0.0000 
   4996 H(5)       31.7783   12.3919   23.6089 H         1 UNK         0.0000 
   4997 H(6)       31.5424   18.7023   23.5158 H         1 UNK         0.0000 
   4998 H(7)       33.0965   21.1414   24.5600 H         1 UNK         0.0000 
   4999 H(8)       32.0215   20.7764   23.2668 H         1 UNK         0.0000 
   5000 H(9)       33.6988   21.1960   22.9860 H         1 UNK         0.0000 
   5001 O(1)       36.9856    7.7793    8.3393 O.3       1 UNK         0.0000 
   5002 O(2)       38.9834    9.0193    2.2953 O.2       1 UNK         0.0000 
   5003 N(1)       36.8023    9.0700    2.9262 N.am      1 UNK         0.0000 
   5004 C(1)       36.9017    8.7111    4.2891 C.ar      1 UNK         0.0000 
   5005 C(2)       37.9839    8.0252    4.8403 C.ar      1 UNK         0.0000 
   5006 C(3)       37.9909    7.7164    6.1975 C.ar      1 UNK         0.0000 
   5007 C(4)       36.9209    8.0791    7.0114 C.ar      1 UNK         0.0000 
   5008 C(5)       35.8253    8.7375    6.4543 C.ar      1 UNK         0.0000 
   5009 C(6)       35.8200    9.0503    5.1025 C.ar      1 UNK         0.0000 
   5010 C(7)       37.7930    9.2228    2.0327 C.2       1 UNK         0.0000 
   5011 C(8)       37.3522    9.6554    0.6600 C.3       1 UNK         0.0000 
   5012 H(1)       38.8244    7.7395    4.2200 H         1 UNK         0.0000 
   5013 H(2)       38.8417    7.1865    6.6077 H         1 UNK         0.0000 
   5014 H(3)       34.9821    9.0076    7.0780 H         1 UNK         0.0000 
   5015 H(4)       34.9693    9.5634    4.6710 H         1 UNK         0.0000 
   5016 H(5)       36.1121    7.8398    8.7451 H         1 UNK         0.0000 
   5017 H(6)       35.8763    9.3147    2.6087 H         1 UNK         0.0000 
   5018 H(7)       37.4304    8.8310    0.0000 H         1 UNK         0.0000 
   5019 H(8)       36.3554   10.0126    0.6397 H         1 UNK         0.0000 
   5020 H(9)       38.0327   10.3786    0.2920 H         1 UNK         0.0000 
   5021 O(1)       39.7091   19.1008    5.1545 O.3       1 UNK         0.0000 
   5022 O(2)       37.7113   12.9320    5.0387 O.2       1 UNK         0.0000 
   5023 N(1)       39.8924   13.5364    5.2264 N.am      1 UNK         0.0000 
   5024 C(1)       39.7930   14.9448    5.1752 C.ar      1 UNK         0.0000 
   5025 C(2)       38.7108   15.6330    4.6269 C.ar      1 UNK         0.0000 
   5026 C(3)       38.7038   17.0248    4.6234 C.ar      1 UNK         0.0000 
   5027 C(4)       39.7738   17.7395    5.1557 C.ar      1 UNK         0.0000 
   5028 C(5)       40.8694   17.0515    5.6759 C.ar      1 UNK         0.0000 
   5029 C(6)       40.8747   15.6640    5.6846 C.ar      1 UNK         0.0000 
   5030 C(7)       38.9016   12.6311    5.1796 C.2       1 UNK         0.0000 
   5031 C(8)       39.3425   11.1969    5.3006 C.3       1 UNK         0.0000 
   5032 H(1)       37.8703   15.0905    4.2122 H         1 UNK         0.0000 
   5033 H(2)       37.8530   17.5413    4.1963 H         1 UNK         0.0000 
   5034 H(3)       41.7126   17.6008    6.0762 H         1 UNK         0.0000 
   5035 H(4)       41.7253   15.1305    6.0906 H         1 UNK         0.0000 
   5036 H(5)       40.5825   19.4834    5.3025 H         1 UNK         0.0000 
   5037 H(6)       40.8184   13.1729    5.3956 H         1 UNK         0.0000 
   5038 H(7)       39.2642   10.7338    4.3514 H         1 UNK         0.0000 
   5039 H(8)       40.3393   11.0988    5.6446 H         1 UNK         0.0000 
   5040 H(9)       38.6620   10.6793    5.9254 H         1 UNK         0.0000 
   5041 O(1)       36.9660   27.3164    6.2473 O.3       1 UNK         0.0000 
   5042 O(2)       34.9682   26.0763   12.2913 O.2       1 UNK         0.0000 
   5043 N(1)       37.1493   26.0256   11.6604 N.am      1 UNK         0.0000 
   5044 C(1)       37.0499   26.3846   10.2975 C.ar      1 UNK         0.0000 
   5045 C(2)       35.9677   27.0704    9.7463 C.ar      1 UNK         0.0000 
   5046 C(3)       35.9607   27.3792    8.3892 C.ar      1 UNK         0.0000 
   5047 C(4)       37.0307   27.0165    7.5752 C.ar      1 UNK         0.0000 
   5048 C(5)       38.1263   26.3582    8.1323 C.ar      1 UNK         0.0000 
   5049 C(6)       38.1316   26.0453    9.4841 C.ar      1 UNK         0.0000 
   5050 C(7)       36.1585   25.8728   12.5539 C.2       1 UNK         0.0000 
   5051 C(8)       36.5994   25.4402   13.9266 C.3       1 UNK         0.0000 
   5052 H(1)       35.1272   27.3561   10.3666 H         1 UNK         0.0000 
   5053 H(2)       35.1099   27.9091    7.9789 H         1 UNK         0.0000 
   5054 H(3)       38.9695   26.0881    7.5086 H         1 UNK         0.0000 
   5055 H(4)       38.9822   25.5322    9.9156 H         1 UNK         0.0000 
   5056 H(5)       37.8394   27.2558    5.8415 H         1 UNK         0.0000 
   5057 H(6)       38.0753   25.7809   11.9779 H         1 UNK         0.0000 
   5058 H(7)       36.5211   26.2646   14.5866 H         1 UNK         0.0000 
   5059 H(8)       37.5962   25.0830   13.9469 H         1 UNK         0.0000 
   5060 H(9)       35.9189   24.7171   14.2946 H         1 UNK         0.0000 
   5061 O(1)       41.3195   15.9949    9.4321 O.3       1 UNK         0.0000 
   5062 O(2)       43.3173   22.1637    9.5479 O.2       1 UNK         0.0000 
   5063 N(1)       41.1361   21.5592    9.3602 N.am      1 UNK         0.0000 
   5064 C(1)       41.2356   20.1508    9.4114 C.ar      1 UNK         0.0000 
   5065 C(2)       42.3178   19.4626    9.9597 C.ar      1 UNK         0.0000 
   5066 C(3)       42.3248   18.0708    9.9633 C.ar      1 UNK         0.0000 
   5067 C(4)       41.2548   17.3562    9.4309 C.ar      1 UNK         0.0000 
   5068 C(5)       40.1592   18.0441    8.9107 C.ar      1 UNK         0.0000 
   5069 C(6)       40.1538   19.4316    8.9020 C.ar      1 UNK         0.0000 
   5070 C(7)       42.1269   22.4646    9.4070 C.2       1 UNK         0.0000 
   5071 C(8)       41.6861   23.8987    9.2860 C.3       1 UNK         0.0000 
   5072 H(1)       43.1583   20.0051   10.3744 H         1 UNK         0.0000 
   5073 H(2)       43.1756   17.5543   10.3903 H         1 UNK         0.0000 
   5074 H(3)       39.3160   17.4948    8.5104 H         1 UNK         0.0000 
   5075 H(4)       39.3032   19.9652    8.4961 H         1 UNK         0.0000 
   5076 H(5)       40.4460   15.6123    9.2841 H         1 UNK         0.0000 
   5077 H(6)       40.2102   21.9227    9.1910 H         1 UNK         0.0000 
   5078 H(7)       41.7643   24.3618   10.2352 H         1 UNK         0.0000 
   5079 H(8)       40.6893   23.9968    8.9420 H         1 UNK         0.0000 
   5080 H(9)       42.3665   24.4164    8.6612 H         1 UNK         0.0000 
   5081 O(1)       31.4994   28.1926   15.5017 O.3       1 UNK         0.0000 
   5082 O(2)       33.4972   29.4326    9.4577 O.2       1 UNK         0.0000 
   5083 N(1)       31.3160   29.4833   10.0886 N.am      1 UNK         0.0000 
   5084 C(1)       31.4155   29.1244   11.4515 C.ar      1 UNK         0.0000 
   5085 C(2)       32.4976   28.4385   12.0027 C.ar      1 UNK         0.0000 
   5086 C(3)       32.5047   28.1297   13.3599 C.ar      1 UNK         0.0000 
   5087 C(4)       31.4347   28.4924   14.1738 C.ar      1 UNK         0.0000 
   5088 C(5)       30.3390   29.1508   13.6167 C.ar      1 UNK         0.0000 
   5089 C(6)       30.3337   29.4636   12.2649 C.ar      1 UNK         0.0000 
   5090 C(7)       32.3068   29.6361    9.1951 C.2       1 UNK         0.0000 
   5091 C(8)       31.8660   30.0687    7.8224 C.3       1 UNK         0.0000 
   5092 H(1)       33.3382   28.1528   11.3824 H         1 UNK         0.0000 
   5093 H(2)       33.3555   27.5998   13.7701 H         1 UNK         0.0000 
   5094 H(3)       29.4959   29.4209   14.2404 H         1 UNK         0.0000 
   5095 H(4)       29.4831   29.9767   11.8334 H         1 UNK         0.0000 
   5096 H(5)       30.6259   28.2531   15.9075 H         1 UNK         0.0000 
   5097 H(6)       30.3901   29.7280    9.7711 H         1 UNK         0.0000 
   5098 H(7)       31.9442   29.2443    7.1624 H         1 UNK         0.0000 
   5099 H(8)       30.8692   30.4259    7.8021 H         1 UNK         0.0000 
   5100 H(9)       32.5464   30.7919    7.4544 H         1 UNK         0.0000 
   5101 O(1)       32.6321   24.8317   12.3169 O.3       1 UNK         0.0000 
   5102 O(2)       30.6343   18.6629   12.2011 O.2       1 UNK         0.0000 
   5103 N(1)       32.8154   19.2673   12.3888 N.am      1 UNK         0.0000 
   5104 C(1)       32.7160   20.6758   12.3376 C.ar      1 UNK         0.0000 
   5105 C(2)       31.6338   21.3640   11.7893 C.ar      1 UNK         0.0000 
   5106 C(3)       31.6268   22.7558   11.7858 C.ar      1 UNK         0.0000 
   5107 C(4)       32.6968   23.4704   12.3181 C.ar      1 UNK         0.0000 
   5108 C(5)       33.7924   22.7825   12.8383 C.ar      1 UNK         0.0000 
   5109 C(6)       33.7977   21.3950   12.8470 C.ar      1 UNK         0.0000 
   5110 C(7)       31.8246   18.3620   12.3420 C.2       1 UNK         0.0000 
   5111 C(8)       32.2655   16.9279   12.4630 C.3       1 UNK         0.0000 
   5112 H(1)       30.7933   20.8215   11.3746 H         1 UNK         0.0000 
   5113 H(2)       30.7760   23.2723   11.3587 H         1 UNK         0.0000 
   5114 H(3)       34.6356   23.3317   13.2386 H         1 UNK         0.0000 
   5115 H(4)       34.6483   20.8614   13.2530 H         1 UNK         0.0000 
   5116 H(5)       33.5055   25.2143   12.4649 H         1 UNK         0.0000 
   5117 H(6)       33.7414   18.9039   12.5580 H         1 UNK         0.0000 
   5118 H(7)       32.1872   16.4648   11.5138 H         1 UNK         0.0000 
   5119 H(8)       33.2623   16.8298   12.8070 H         1 UNK         0.0000 
   5120 H(9)       31.5850   16.4102   13.0878 H         1 UNK         0.0000 
   5121 O(1)       36.9660   33.0473   13.4097 O.3       1 UNK         0.0000 
   5122 O(2)       34.9682   31.8072   19.4537 O.2       1 UNK         0.0000 
   5123 N(1)       37.1493   31.7566   18.8228 N.am      1 UNK         0.0000 
   5124 C(1)       37.0499   32.1155   17.4599 C.ar      1 UNK         0.0000 
   5125 C(2)       35.9677   32.8014   16.9087 C.ar      1 UNK         0.0000 
   5126 C(3)       35.9607   33.1102   15.5516 C.ar      1 UNK         0.0000 
   5127 C(4)       37.0307   32.7475   14.7376 C.ar      1 UNK         0.0000 
   5128 C(5)       38.1263   32.0891   15.2947 C.ar      1 UNK         0.0000 
   5129 C(6)       38.1316   31.7763   16.6465 C.ar      1 UNK         0.0000 
   5130 C(7)       36.1585   31.6038   19.7163 C.2       1 UNK         0.0000 
   5131 C(8)       36.5994   31.1711   21.0890 C.3       1 UNK         0.0000 
   5132 H(1)       35.1272   33.0871   17.5290 H         1 UNK         0.0000 
   5133 H(2)       35.1099   33.6401   15.1413 H         1 UNK         0.0000 
   5134 H(3)       38.9695   31.8190   14.6710 H         1 UNK         0.0000 
   5135 H(4)       38.9822   31.2632   17.0780 H         1 UNK         0.0000 
   5136 H(5)       37.8394   32.9868   13.0039 H         1 UNK         0.0000 
   5137 H(6)       38.0753   31.5119   19.1403 H         1 UNK         0.0000 
   5138 H(7)       36.5211   31.9956   21.7490 H         1 UNK         0.0000 
   5139 H(8)       37.5962   30.8140   21.1093 H         1 UNK         0.0000 
   5140 H(9)       35.9189   30.4480   21.4570 H         1 UNK         0.0000 
   5141 O(1)       41.3195   21.7258   16.5945 O.3       1 UNK         0.0000 
   5142 O(2)       43.3173   27.8946   16.7103 O.2       1 UNK         0.0000 
   5143 N(1)       41.1361   27.2902   16.5226 N.am      1 UNK         0.0000 
   5144 C(1)       41.2356   25.8818   16.5738 C.ar      1 UNK         0.0000 
   5145 C(2)       42.3178   25.1936   17.1221 C.ar      1 UNK         0.0000 
   5146 C(3)       42.3248   23.8017   17.1257 C.ar      1 UNK         0.0000 
   5147 C(4)       41.2548   23.0871   16.5933 C.ar      1 UNK         0.0000 
   5148 C(5)       40.1592   23.7751   16.0731 C.ar      1 UNK         0.0000 
   5149 C(6)       40.1538   25.1626   16.0644 C.ar      1 UNK         0.0000 
   5150 C(7)       42.1269   28.1955   16.5694 C.2       1 UNK         0.0000 
   5151 C(8)       41.6861   29.6296   16.4484 C.3       1 UNK         0.0000 
   5152 H(1)       43.1583   25.7361   17.5368 H         1 UNK         0.0000 
   5153 H(2)       43.1756   23.2853   17.5527 H         1 UNK         0.0000 
   5154 H(3)       39.3160   23.2258   15.6728 H         1 UNK         0.0000 
   5155 H(4)       39.3032   25.6961   15.6585 H         1 UNK         0.0000 
   5156 H(5)       40.4460   21.3432   16.4465 H         1 UNK         0.0000 
   5157 H(6)       40.2102   27.6537   16.3534 H         1 UNK         0.0000 
   5158 H(7)       41.7643   30.0928   17.3976 H         1 UNK         0.0000 
   5159 H(8)       40.6893   29.7278   16.1044 H         1 UNK         0.0000 
   5160 H(9)       42.3665   30.1473   15.8236 H         1 UNK         0.0000 
   5161 O(1)       36.9856   19.2412   22.6641 O.3       1 UNK         0.0000 
   5162 O(2)       38.9834   20.4813   16.6201 O.2       1 UNK         0.0000 
   5163 N(1)       36.8023   20.5319   17.2510 N.am      1 UNK         0.0000 
   5164 C(1)       36.9017   20.1730   18.6139 C.ar      1 UNK         0.0000 
   5165 C(2)       37.9839   19.4871   19.1651 C.ar      1 UNK         0.0000 
   5166 C(3)       37.9909   19.1784   20.5223 C.ar      1 UNK         0.0000 
   5167 C(4)       36.9209   19.5410   21.3362 C.ar      1 UNK         0.0000 
   5168 C(5)       35.8253   20.1994   20.7791 C.ar      1 UNK         0.0000 
   5169 C(6)       35.8200   20.5123   19.4273 C.ar      1 UNK         0.0000 
   5170 C(7)       37.7930   20.6847   16.3575 C.2       1 UNK         0.0000 
   5171 C(8)       37.3522   21.1174   14.9848 C.3       1 UNK         0.0000 
   5172 H(1)       38.8244   19.2015   18.5448 H         1 UNK         0.0000 
   5173 H(2)       38.8417   18.6484   20.9325 H         1 UNK         0.0000 
   5174 H(3)       34.9821   20.4695   21.4028 H         1 UNK         0.0000 
   5175 H(4)       34.9693   21.0253   18.9958 H         1 UNK         0.0000 
   5176 H(5)       36.1121   19.3017   23.0699 H         1 UNK         0.0000 
   5177 H(6)       35.8763   20.7767   16.9335 H         1 UNK         0.0000 
   5178 H(7)       37.4304   20.2929   14.3248 H         1 UNK         0.0000 
   5179 H(8)       36.3554   21.4745   14.9645 H         1 UNK         0.0000 
   5180 H(9)       38.0327   21.8405   14.6168 H         1 UNK         0.0000 
   5181 O(1)       39.7091   30.5627   19.4793 O.3       1 UNK         0.0000 
   5182 O(2)       37.7113   24.3939   19.3635 O.2       1 UNK         0.0000 
   5183 N(1)       39.8924   24.9983   19.5512 N.am      1 UNK         0.0000 
   5184 C(1)       39.7930   26.4068   19.5000 C.ar      1 UNK         0.0000 
   5185 C(2)       38.7108   27.0950   18.9517 C.ar      1 UNK         0.0000 
   5186 C(3)       38.7038   28.4868   18.9482 C.ar      1 UNK         0.0000 
   5187 C(4)       39.7738   29.2014   19.4805 C.ar      1 UNK         0.0000 
   5188 C(5)       40.8694   28.5135   20.0007 C.ar      1 UNK         0.0000 
   5189 C(6)       40.8747   27.1259   20.0094 C.ar      1 UNK         0.0000 
   5190 C(7)       38.9016   24.0930   19.5044 C.2       1 UNK         0.0000 
   5191 C(8)       39.3425   22.6589   19.6254 C.3       1 UNK         0.0000 
   5192 H(1)       37.8703   26.5524   18.5370 H         1 UNK         0.0000 
   5193 H(2)       37.8530   29.0033   18.5211 H         1 UNK         0.0000 
   5194 H(3)       41.7126   29.0627   20.4010 H         1 UNK         0.0000 
   5195 H(4)       41.7253   26.5924   20.4154 H         1 UNK         0.0000 
   5196 H(5)       40.5825   30.9453   19.6273 H         1 UNK         0.0000 
   5197 H(6)       40.8184   24.6348   19.7204 H         1 UNK         0.0000 
   5198 H(7)       39.2642   22.1958   18.6762 H         1 UNK         0.0000 
   5199 H(8)       40.3393   22.5607   19.9694 H         1 UNK         0.0000 
   5200 H(9)       38.6620   22.1412   20.2502 H         1 UNK         0.0000 
   5201 O(1)       35.3752   24.0960   20.5721 O.3       1 UNK         0.0000 
   5202 O(2)       33.3774   22.8559   26.6161 O.2       1 UNK         0.0000 
   5203 N(1)       35.5585   22.8052   25.9852 N.am      1 UNK         0.0000 
   5204 C(1)       35.4591   23.1642   24.6223 C.ar      1 UNK         0.0000 
   5205 C(2)       34.3769   23.8500   24.0711 C.ar      1 UNK         0.0000 
   5206 C(3)       34.3699   24.1588   22.7140 C.ar      1 UNK         0.0000 
   5207 C(4)       35.4399   23.7962   21.9000 C.ar      1 UNK         0.0000 
   5208 C(5)       36.5355   23.1378   22.4571 C.ar      1 UNK         0.0000 
   5209 C(6)       36.5408   22.8249   23.8089 C.ar      1 UNK         0.0000 
   5210 C(7)       34.5678   22.6524   26.8787 C.2       1 UNK         0.0000 
   5211 C(8)       35.0086   22.2198   28.2514 C.3       1 UNK         0.0000 
   5212 H(1)       33.5364   24.1357   24.6914 H         1 UNK         0.0000 
   5213 H(2)       33.5191   24.6887   22.3037 H         1 UNK         0.0000 
   5214 H(3)       37.3787   22.8677   21.8334 H         1 UNK         0.0000 
   5215 H(4)       37.3914   22.3118   24.2404 H         1 UNK         0.0000 
   5216 H(5)       36.2486   24.0354   20.1663 H         1 UNK         0.0000 
   5217 H(6)       36.4845   22.5605   26.3027 H         1 UNK         0.0000 
   5218 H(7)       34.9303   23.0442   28.9114 H         1 UNK         0.0000 
   5219 H(8)       36.0054   21.8626   28.2717 H         1 UNK         0.0000 
   5220 H(9)       34.3281   21.4967   28.6194 H         1 UNK         0.0000 
   5221 O(1)       34.2425   27.4568   23.7569 O.3       1 UNK         0.0000 
   5222 O(2)       36.2403   33.6256   23.8727 O.2       1 UNK         0.0000 
   5223 N(1)       34.0591   33.0212   23.6850 N.am      1 UNK         0.0000 
   5224 C(1)       34.1586   31.6127   23.7362 C.ar      1 UNK         0.0000 
   5225 C(2)       35.2408   30.9245   24.2845 C.ar      1 UNK         0.0000 
   5226 C(3)       35.2478   29.5327   24.2881 C.ar      1 UNK         0.0000 
   5227 C(4)       34.1778   28.8181   23.7557 C.ar      1 UNK         0.0000 
   5228 C(5)       33.0822   29.5060   23.2355 C.ar      1 UNK         0.0000 
   5229 C(6)       33.0768   30.8936   23.2268 C.ar      1 UNK         0.0000 
   5230 C(7)       35.0499   33.9265   23.7318 C.2       1 UNK         0.0000 
   5231 C(8)       34.6091   35.3606   23.6108 C.3       1 UNK         0.0000 
   5232 H(1)       36.0813   31.4671   24.6992 H         1 UNK         0.0000 
   5233 H(2)       36.0986   29.0162   24.7151 H         1 UNK         0.0000 
   5234 H(3)       32.2390   28.9568   22.8352 H         1 UNK         0.0000 
   5235 H(4)       32.2262   31.4271   22.8209 H         1 UNK         0.0000 
   5236 H(5)       33.3690   27.0742   23.6089 H         1 UNK         0.0000 
   5237 H(6)       33.1332   33.3846   23.5158 H         1 UNK         0.0000 
   5238 H(7)       34.6873   35.8237   24.5600 H         1 UNK         0.0000 
   5239 H(8)       33.6123   35.4588   23.2668 H         1 UNK         0.0000 
   5240 H(9)       35.2895   35.8783   22.9860 H         1 UNK         0.0000 
   5241 O(1)       38.5764   22.4616    8.3393 O.3       1 UNK         0.0000 
   5242 O(2)       40.5742   23.7017    2.2953 O.2       1 UNK         0.0000 
   5243 N(1)       38.3930   23.7523    2.9262 N.am      1 UNK         0.0000 
   5244 C(1)       38.4925   23.3934    4.2891 C.ar      1 UNK         0.0000 
   5245 C(2)       39.5746   22.7075    4.8403 C.ar      1 UNK         0.0000 
   5246 C(3)       39.5817   22.3988    6.1975 C.ar      1 UNK         0.0000 
   5247 C(4)       38.5117   22.7614    7.0114 C.ar      1 UNK         0.0000 
   5248 C(5)       37.4160   23.4198    6.4543 C.ar      1 UNK         0.0000 
   5249 C(6)       37.4107   23.7327    5.1025 C.ar      1 UNK         0.0000 
   5250 C(7)       39.3838   23.9051    2.0327 C.2       1 UNK         0.0000 
   5251 C(8)       38.9430   24.3378    0.6600 C.3       1 UNK         0.0000 
   5252 H(1)       40.4152   22.4219    4.2200 H         1 UNK         0.0000 
   5253 H(2)       40.4325   21.8688    6.6077 H         1 UNK         0.0000 
   5254 H(3)       36.5729   23.6899    7.0780 H         1 UNK         0.0000 
   5255 H(4)       36.5601   24.2457    4.6710 H         1 UNK         0.0000 
   5256 H(5)       37.7029   22.5221    8.7451 H         1 UNK         0.0000 
   5257 H(6)       37.4671   23.9971    2.6087 H         1 UNK         0.0000 
   5258 H(7)       39.0212   23.5133    0.0000 H         1 UNK         0.0000 
   5259 H(8)       37.9462   24.6949    0.6397 H         1 UNK         0.0000 
   5260 H(9)       39.6234   25.0609    0.2920 H         1 UNK         0.0000 
   5261 O(1)       41.2999   33.7831    5.1545 O.3       1 UNK         0.0000 
   5262 O(2)       39.3021   27.6143    5.0387 O.2       1 UNK         0.0000 
   5263 N(1)       41.4832   28.2187    5.2264 N.am      1 UNK         0.0000 
   5264 C(1)       41.3837   29.6272    5.1752 C.ar      1 UNK         0.0000 
   5265 C(2)       40.3016   30.3154    4.6269 C.ar      1 UNK         0.0000 
   5266 C(3)       40.2946   31.7072    4.6234 C.ar      1 UNK         0.0000 
   5267 C(4)       41.3646   32.4218    5.1557 C.ar      1 UNK         0.0000 
   5268 C(5)       42.4602   31.7339    5.6759 C.ar      1 UNK         0.0000 
   5269 C(6)       42.4655   30.3463    5.6846 C.ar      1 UNK         0.0000 
   5270 C(7)       40.4924   27.3134    5.1796 C.2       1 UNK         0.0000 
   5271 C(8)       40.9333   25.8793    5.3006 C.3       1 UNK         0.0000 
   5272 H(1)       39.4611   29.7728    4.2122 H         1 UNK         0.0000 
   5273 H(2)       39.4438   32.2236    4.1963 H         1 UNK         0.0000 
   5274 H(3)       43.3034   32.2831    6.0762 H         1 UNK         0.0000 
   5275 H(4)       43.3161   29.8128    6.0906 H         1 UNK         0.0000 
   5276 H(5)       42.1733   34.1657    5.3025 H         1 UNK         0.0000 
   5277 H(6)       42.4092   27.8552    5.3956 H         1 UNK         0.0000 
   5278 H(7)       40.8550   25.4162    4.3514 H         1 UNK         0.0000 
   5279 H(8)       41.9301   25.7811    5.6446 H         1 UNK         0.0000 
   5280 H(9)       40.2528   25.3616    5.9254 H         1 UNK         0.0000 
   5281 O(1)       38.5568   41.9987    6.2473 O.3       1 UNK         0.0000 
   5282 O(2)       36.5590   40.7586   12.2913 O.2       1 UNK         0.0000 
   5283 N(1)       38.7401   40.7080   11.6604 N.am      1 UNK         0.0000 
   5284 C(1)       38.6406   41.0669   10.2975 C.ar      1 UNK         0.0000 
   5285 C(2)       37.5585   41.7528    9.7463 C.ar      1 UNK         0.0000 
   5286 C(3)       37.5515   42.0615    8.3892 C.ar      1 UNK         0.0000 
   5287 C(4)       38.6215   41.6989    7.5752 C.ar      1 UNK         0.0000 
   5288 C(5)       39.7171   41.0405    8.1323 C.ar      1 UNK         0.0000 
   5289 C(6)       39.7224   40.7276    9.4841 C.ar      1 UNK         0.0000 
   5290 C(7)       37.7493   40.5551   12.5539 C.2       1 UNK         0.0000 
   5291 C(8)       38.1902   40.1225   13.9266 C.3       1 UNK         0.0000 
   5292 H(1)       36.7180   42.0384   10.3666 H         1 UNK         0.0000 
   5293 H(2)       36.7006   42.5914    7.9789 H         1 UNK         0.0000 
   5294 H(3)       40.5603   40.7704    7.5086 H         1 UNK         0.0000 
   5295 H(4)       40.5730   40.2146    9.9156 H         1 UNK         0.0000 
   5296 H(5)       39.4302   41.9382    5.8415 H         1 UNK         0.0000 
   5297 H(6)       39.6661   40.4632   11.9779 H         1 UNK         0.0000 
   5298 H(7)       38.1119   40.9470   14.5866 H         1 UNK         0.0000 
   5299 H(8)       39.1870   39.7654   13.9469 H         1 UNK         0.0000 
   5300 H(9)       37.5097   39.3994   14.2946 H         1 UNK         0.0000 
   5301 O(1)       42.9103   30.6772    9.4321 O.3       1 UNK         0.0000 
   5302 O(2)       44.9081   36.8460    9.5479 O.2       1 UNK         0.0000 
   5303 N(1)       42.7269   36.2416    9.3602 N.am      1 UNK         0.0000 
   5304 C(1)       42.8264   34.8331    9.4114 C.ar      1 UNK         0.0000 
   5305 C(2)       43.9085   34.1449    9.9597 C.ar      1 UNK         0.0000 
   5306 C(3)       43.9156   32.7531    9.9633 C.ar      1 UNK         0.0000 
   5307 C(4)       42.8455   32.0385    9.4309 C.ar      1 UNK         0.0000 
   5308 C(5)       41.7499   32.7264    8.9107 C.ar      1 UNK         0.0000 
   5309 C(6)       41.7446   34.1140    8.9020 C.ar      1 UNK         0.0000 
   5310 C(7)       43.7177   37.1469    9.4070 C.2       1 UNK         0.0000 
   5311 C(8)       43.2769   38.5810    9.2860 C.3       1 UNK         0.0000 
   5312 H(1)       44.7491   34.6875   10.3744 H         1 UNK         0.0000 
   5313 H(2)       44.7664   32.2366   10.3903 H         1 UNK         0.0000 
   5314 H(3)       40.9068   32.1772    8.5104 H         1 UNK         0.0000 
   5315 H(4)       40.8940   34.6475    8.4961 H         1 UNK         0.0000 
   5316 H(5)       42.0368   30.2946    9.2841 H         1 UNK         0.0000 
   5317 H(6)       41.8010   36.6050    9.1910 H         1 UNK         0.0000 
   5318 H(7)       43.3551   39.0441   10.2352 H         1 UNK         0.0000 
   5319 H(8)       42.2801   38.6792    8.9420 H         1 UNK         0.0000 
   5320 H(9)       43.9573   39.0987    8.6612 H         1 UNK         0.0000 
   5321 O(1)       33.0902   42.8749   15.5017 O.3       1 UNK         0.0000 
   5322 O(2)       35.0880   44.1150    9.4577 O.2       1 UNK         0.0000 
   5323 N(1)       32.9068   44.1656   10.0886 N.am      1 UNK         0.0000 
   5324 C(1)       33.0063   43.8067   11.4515 C.ar      1 UNK         0.0000 
   5325 C(2)       34.0884   43.1208   12.0027 C.ar      1 UNK         0.0000 
   5326 C(3)       34.0955   42.8120   13.3599 C.ar      1 UNK         0.0000 
   5327 C(4)       33.0254   43.1747   14.1738 C.ar      1 UNK         0.0000 
   5328 C(5)       31.9298   43.8331   13.6167 C.ar      1 UNK         0.0000 
   5329 C(6)       31.9245   44.1460   12.2649 C.ar      1 UNK         0.0000 
   5330 C(7)       33.8976   44.3184    9.1951 C.2       1 UNK         0.0000 
   5331 C(8)       33.4567   44.7511    7.8224 C.3       1 UNK         0.0000 
   5332 H(1)       34.9290   42.8352   11.3824 H         1 UNK         0.0000 
   5333 H(2)       34.9463   42.2821   13.7701 H         1 UNK         0.0000 
   5334 H(3)       31.0867   44.1032   14.2404 H         1 UNK         0.0000 
   5335 H(4)       31.0739   44.6590   11.8334 H         1 UNK         0.0000 
   5336 H(5)       32.2167   42.9354   15.9075 H         1 UNK         0.0000 
   5337 H(6)       31.9809   44.4103    9.7711 H         1 UNK         0.0000 
   5338 H(7)       33.5350   43.9266    7.1624 H         1 UNK         0.0000 
   5339 H(8)       32.4600   45.1082    7.8021 H         1 UNK         0.0000 
   5340 H(9)       34.1372   45.4742    7.4544 H         1 UNK         0.0000 
   5341 O(1)       34.2229   39.5141   12.3169 O.3       1 UNK         0.0000 
   5342 O(2)       32.2251   33.3453   12.2011 O.2       1 UNK         0.0000 
   5343 N(1)       34.4062   33.9497   12.3888 N.am      1 UNK         0.0000 
   5344 C(1)       34.3068   35.3581   12.3376 C.ar      1 UNK         0.0000 
   5345 C(2)       33.2246   36.0463   11.7893 C.ar      1 UNK         0.0000 
   5346 C(3)       33.2176   37.4381   11.7858 C.ar      1 UNK         0.0000 
   5347 C(4)       34.2876   38.1527   12.3181 C.ar      1 UNK         0.0000 
   5348 C(5)       35.3832   37.4648   12.8383 C.ar      1 UNK         0.0000 
   5349 C(6)       35.3885   36.0773   12.8470 C.ar      1 UNK         0.0000 
   5350 C(7)       33.4154   33.0444   12.3420 C.2       1 UNK         0.0000 
   5351 C(8)       33.8563   31.6102   12.4630 C.3       1 UNK         0.0000 
   5352 H(1)       32.3841   35.5038   11.3746 H         1 UNK         0.0000 
   5353 H(2)       32.3668   37.9546   11.3587 H         1 UNK         0.0000 
   5354 H(3)       36.2264   38.0141   13.2386 H         1 UNK         0.0000 
   5355 H(4)       36.2391   35.5438   13.2530 H         1 UNK         0.0000 
   5356 H(5)       35.0963   39.8967   12.4649 H         1 UNK         0.0000 
   5357 H(6)       35.3322   33.5862   12.5580 H         1 UNK         0.0000 
   5358 H(7)       33.7780   31.1471   11.5138 H         1 UNK         0.0000 
   5359 H(8)       34.8531   31.5121   12.8070 H         1 UNK         0.0000 
   5360 H(9)       33.1758   31.0926   13.0878 H         1 UNK         0.0000 
   5361 O(1)       38.5568   47.7297   13.4097 O.3       1 UNK         0.0000 
   5362 O(2)       36.5590   46.4896   19.4537 O.2       1 UNK         0.0000 
   5363 N(1)       38.7401   46.4389   18.8228 N.am      1 UNK         0.0000 
   5364 C(1)       38.6406   46.7979   17.4599 C.ar      1 UNK         0.0000 
   5365 C(2)       37.5585   47.4837   16.9087 C.ar      1 UNK         0.0000 
   5366 C(3)       37.5515   47.7925   15.5516 C.ar      1 UNK         0.0000 
   5367 C(4)       38.6215   47.4298   14.7376 C.ar      1 UNK         0.0000 
   5368 C(5)       39.7171   46.7715   15.2947 C.ar      1 UNK         0.0000 
   5369 C(6)       39.7224   46.4586   16.6465 C.ar      1 UNK         0.0000 
   5370 C(7)       37.7493   46.2861   19.7163 C.2       1 UNK         0.0000 
   5371 C(8)       38.1902   45.8535   21.0890 C.3       1 UNK         0.0000 
   5372 H(1)       36.7180   47.7694   17.5290 H         1 UNK         0.0000 
   5373 H(2)       36.7006   48.3224   15.1413 H         1 UNK         0.0000 
   5374 H(3)       40.5603   46.5014   14.6710 H         1 UNK         0.0000 
   5375 H(4)       40.5730   45.9455   17.0780 H         1 UNK         0.0000 
   5376 H(5)       39.4302   47.6691   13.0039 H         1 UNK         0.0000 
   5377 H(6)       39.6661   46.1942   19.1403 H         1 UNK         0.0000 
   5378 H(7)       38.1119   46.6779   21.7490 H         1 UNK         0.0000 
   5379 H(8)       39.1870   45.4963   21.1093 H         1 UNK         0.0000 
   5380 H(9)       37.5097   45.1304   21.4570 H         1 UNK         0.0000 
   5381 O(1)       42.9103   36.4082   16.5945 O.3       1 UNK         0.0000 
   5382 O(2)       44.9081   42.5769   16.7103 O.2       1 UNK         0.0000 
   5383 N(1)       42.7269   41.9725   16.5226 N.am      1 UNK         0.0000 
   5384 C(1)       42.8264   40.5641   16.5738 C.ar      1 UNK         0.0000 
   5385 C(2)       43.9085   39.8759   17.1221 C.ar      1 UNK         0.0000 
   5386 C(3)       43.9156   38.4841   17.1257 C.ar      1 UNK         0.0000 
   5387 C(4)       42.8455   37.7695   16.5933 C.ar      1 UNK         0.0000 
   5388 C(5)       41.7499   38.4574   16.0731 C.ar      1 UNK         0.0000 
   5389 C(6)       41.7446   39.8449   16.0644 C.ar      1 UNK         0.0000 
   5390 C(7)       43.7177   42.8779   16.5694 C.2       1 UNK         0.0000 
   5391 C(8)       43.2769   44.3120   16.4484 C.3       1 UNK         0.0000 
   5392 H(1)       44.7491   40.4184   17.5368 H         1 UNK         0.0000 
   5393 H(2)       44.7664   37.9676   17.5527 H         1 UNK         0.0000 
   5394 H(3)       40.9068   37.9081   15.6728 H         1 UNK         0.0000 
   5395 H(4)       40.8940   40.3784   15.6585 H         1 UNK         0.0000 
   5396 H(5)       42.0368   36.0256   16.4465 H         1 UNK         0.0000 
   5397 H(6)       41.8010   42.3360   16.3534 H         1 UNK         0.0000 
   5398 H(7)       43.3551   44.7751   17.3976 H         1 UNK         0.0000 
   5399 H(8)       42.2801   44.4101   16.1044 H         1 UNK         0.0000 
   5400 H(9)       43.9573   44.8296   15.8236 H         1 UNK         0.0000 
   5401 O(1)       38.5764   33.9235   22.6641 O.3       1 UNK         0.0000 
   5402 O(2)       40.5742   35.1636   16.6201 O.2       1 UNK         0.0000 
   5403 N(1)       38.3930   35.2142   17.2510 N.am      1 UNK         0.0000 
   5404 C(1)       38.4925   34.8553   18.6139 C.ar      1 UNK         0.0000 
   5405 C(2)       39.5746   34.1694   19.1651 C.ar      1 UNK         0.0000 
   5406 C(3)       39.5817   33.8607   20.5223 C.ar      1 UNK         0.0000 
   5407 C(4)       38.5117   34.2233   21.3362 C.ar      1 UNK         0.0000 
   5408 C(5)       37.4160   34.8817   20.7791 C.ar      1 UNK         0.0000 
   5409 C(6)       37.4107   35.1946   19.4273 C.ar      1 UNK         0.0000 
   5410 C(7)       39.3838   35.3671   16.3575 C.2       1 UNK         0.0000 
   5411 C(8)       38.9430   35.7997   14.9848 C.3       1 UNK         0.0000 
   5412 H(1)       40.4152   33.8838   18.5448 H         1 UNK         0.0000 
   5413 H(2)       40.4325   33.3308   20.9325 H         1 UNK         0.0000 
   5414 H(3)       36.5729   35.1518   21.4028 H         1 UNK         0.0000 
   5415 H(4)       36.5601   35.7077   18.9958 H         1 UNK         0.0000 
   5416 H(5)       37.7029   33.9840   23.0699 H         1 UNK         0.0000 
   5417 H(6)       37.4671   35.4590   16.9335 H         1 UNK         0.0000 
   5418 H(7)       39.0212   34.9753   14.3248 H         1 UNK         0.0000 
   5419 H(8)       37.9462   36.1568   14.9645 H         1 UNK         0.0000 
   5420 H(9)       39.6234   36.5228   14.6168 H         1 UNK         0.0000 
   5421 O(1)       41.2999   45.2450   19.4793 O.3       1 UNK         0.0000 
   5422 O(2)       39.3021   39.0762   19.3635 O.2       1 UNK         0.0000 
   5423 N(1)       41.4832   39.6806   19.5512 N.am      1 UNK         0.0000 
   5424 C(1)       41.3837   41.0891   19.5000 C.ar      1 UNK         0.0000 
   5425 C(2)       40.3016   41.7773   18.9517 C.ar      1 UNK         0.0000 
   5426 C(3)       40.2946   43.1691   18.9482 C.ar      1 UNK         0.0000 
   5427 C(4)       41.3646   43.8837   19.4805 C.ar      1 UNK         0.0000 
   5428 C(5)       42.4602   43.1958   20.0007 C.ar      1 UNK         0.0000 
   5429 C(6)       42.4655   41.8082   20.0094 C.ar      1 UNK         0.0000 
   5430 C(7)       40.4924   38.7753   19.5044 C.2       1 UNK         0.0000 
   5431 C(8)       40.9333   37.3412   19.6254 C.3       1 UNK         0.0000 
   5432 H(1)       39.4611   41.2348   18.5370 H         1 UNK         0.0000 
   5433 H(2)       39.4438   43.6856   18.5211 H         1 UNK         0.0000 
   5434 H(3)       43.3034   43.7450   20.4010 H         1 UNK         0.0000 
   5435 H(4)       43.3161   41.2747   20.4154 H         1 UNK         0.0000 
   5436 H(5)       42.1733   45.6276   19.6273 H         1 UNK         0.0000 
   5437 H(6)       42.4092   39.3172   19.7204 H         1 UNK         0.0000 
   5438 H(7)       40.8550   36.8781   18.6762 H         1 UNK         0.0000 
   5439 H(8)       41.9301   37.2431   19.9694 H         1 UNK         0.0000 
   5440 H(9)       40.2528   36.8235   20.2502 H         1 UNK         0.0000 
   5441 O(1)       36.9660   38.7783   20.5721 O.3       1 UNK         0.0000 
   5442 O(2)       34.9682   37.5382   26.6161 O.2       1 UNK         0.0000 
   5443 N(1)       37.1493   37.4876   25.9852 N.am      1 UNK         0.0000 
   5444 C(1)       37.0499   37.8465   24.6223 C.ar      1 UNK         0.0000 
   5445 C(2)       35.9677   38.5324   24.0711 C.ar      1 UNK         0.0000 
   5446 C(3)       35.9607   38.8411   22.7140 C.ar      1 UNK         0.0000 
   5447 C(4)       37.0307   38.4785   21.9000 C.ar      1 UNK         0.0000 
   5448 C(5)       38.1263   37.8201   22.4571 C.ar      1 UNK         0.0000 
   5449 C(6)       38.1316   37.5072   23.8089 C.ar      1 UNK         0.0000 
   5450 C(7)       36.1585   37.3347   26.8787 C.2       1 UNK         0.0000 
   5451 C(8)       36.5994   36.9021   28.2514 C.3       1 UNK         0.0000 
   5452 H(1)       35.1272   38.8180   24.6914 H         1 UNK         0.0000 
   5453 H(2)       35.1099   39.3710   22.3037 H         1 UNK         0.0000 
   5454 H(3)       38.9695   37.5500   21.8334 H         1 UNK         0.0000 
   5455 H(4)       38.9822   36.9942   24.2404 H         1 UNK         0.0000 
   5456 H(5)       37.8394   38.7178   20.1663 H         1 UNK         0.0000 
   5457 H(6)       38.0753   37.2428   26.3027 H         1 UNK         0.0000 
   5458 H(7)       36.5211   37.7266   28.9114 H         1 UNK         0.0000 
   5459 H(8)       37.5962   36.5450   28.2717 H         1 UNK         0.0000 
   5460 H(9)       35.9189   36.1790   28.6194 H         1 UNK         0.0000 
   5461 O(1)       35.8333   42.1391   23.7569 O.3       1 UNK         0.0000 
   5462 O(2)       37.8311   48.3079   23.8727 O.2       1 UNK         0.0000 
   5463 N(1)       35.6499   47.7035   23.6850 N.am      1 UNK         0.0000 
   5464 C(1)       35.7494   46.2951   23.7362 C.ar      1 UNK         0.0000 
   5465 C(2)       36.8315   45.6068   24.2845 C.ar      1 UNK         0.0000 
   5466 C(3)       36.8386   44.2150   24.2881 C.ar      1 UNK         0.0000 
   5467 C(4)       35.7685   43.5004   23.7557 C.ar      1 UNK         0.0000 
   5468 C(5)       34.6729   44.1884   23.2355 C.ar      1 UNK         0.0000 
   5469 C(6)       34.6676   45.5759   23.2268 C.ar      1 UNK         0.0000 
   5470 C(7)       36.6407   48.6088   23.7318 C.2       1 UNK         0.0000 
   5471 C(8)       36.1998   50.0429   23.6108 C.3       1 UNK         0.0000 
   5472 H(1)       37.6721   46.1494   24.6992 H         1 UNK         0.0000 
   5473 H(2)       37.6894   43.6986   24.7151 H         1 UNK         0.0000 
   5474 H(3)       33.8298   43.6391   22.8352 H         1 UNK         0.0000 
   5475 H(4)       33.8170   46.1094   22.8209 H         1 UNK         0.0000 
   5476 H(5)       34.9598   41.7565   23.6089 H         1 UNK         0.0000 
   5477 H(6)       34.7240   48.0670   23.5158 H         1 UNK         0.0000 
   5478 H(7)       36.2781   50.5060   24.5600 H         1 UNK         0.0000 
   5479 H(8)       35.2031   50.1411   23.2668 H         1 UNK         0.0000 
   5480 H(9)       36.8803   50.5606   22.9860 H         1 UNK         0.0000 
   5481 O(1)       40.1672   37.1439    8.3393 O.3       1 UNK         0.0000 
   5482 O(2)       42.1650   38.3840    2.2953 O.2       1 UNK         0.0000 
   5483 N(1)       39.9838   38.4346    2.9262 N.am      1 UNK         0.0000 
   5484 C(1)       40.0833   38.0757    4.2891 C.ar      1 UNK         0.0000 
   5485 C(2)       41.1654   37.3898    4.8403 C.ar      1 UNK         0.0000 
   5486 C(3)       41.1725   37.0811    6.1975 C.ar      1 UNK         0.0000 
   5487 C(4)       40.1024   37.4437    7.0114 C.ar      1 UNK         0.0000 
   5488 C(5)       39.0068   38.1021    6.4543 C.ar      1 UNK         0.0000 
   5489 C(6)       39.0015   38.4150    5.1025 C.ar      1 UNK         0.0000 
   5490 C(7)       40.9746   38.5875    2.0327 C.2       1 UNK         0.0000 
   5491 C(8)       40.5337   39.0201    0.6600 C.3       1 UNK         0.0000 
   5492 H(1)       42.0060   37.1042    4.2200 H         1 UNK         0.0000 
   5493 H(2)       42.0233   36.5512    6.6077 H         1 UNK         0.0000 
   5494 H(3)       38.1637   38.3722    7.0780 H         1 UNK         0.0000 
   5495 H(4)       38.1509   38.9281    4.6710 H         1 UNK         0.0000 
   5496 H(5)       39.2937   37.2044    8.7451 H         1 UNK         0.0000 
   5497 H(6)       39.0579   38.6794    2.6087 H         1 UNK         0.0000 
   5498 H(7)       40.6120   38.1956    0.0000 H         1 UNK         0.0000 
   5499 H(8)       39.5370   39.3772    0.6397 H         1 UNK         0.0000 
   5500 H(9)       41.2142   39.7432    0.2920 H         1 UNK         0.0000 
   5501 O(1)       42.8907   48.4654    5.1545 O.3       1 UNK         0.0000 
   5502 O(2)       40.8928   42.2966    5.0387 O.2       1 UNK         0.0000 
   5503 N(1)       43.0740   42.9010    5.2264 N.am      1 UNK         0.0000 
   5504 C(1)       42.9745   44.3095    5.1752 C.ar      1 UNK         0.0000 
   5505 C(2)       41.8924   44.9977    4.6269 C.ar      1 UNK         0.0000 
   5506 C(3)       41.8853   46.3895    4.6234 C.ar      1 UNK         0.0000 
   5507 C(4)       42.9554   47.1041    5.1557 C.ar      1 UNK         0.0000 
   5508 C(5)       44.0510   46.4162    5.6759 C.ar      1 UNK         0.0000 
   5509 C(6)       44.0563   45.0286    5.6846 C.ar      1 UNK         0.0000 
   5510 C(7)       42.0832   41.9957    5.1796 C.2       1 UNK         0.0000 
   5511 C(8)       42.5241   40.5616    5.3006 C.3       1 UNK         0.0000 
   5512 H(1)       41.0518   44.4552    4.2122 H         1 UNK         0.0000 
   5513 H(2)       41.0345   46.9060    4.1963 H         1 UNK         0.0000 
   5514 H(3)       44.8941   46.9654    6.0762 H         1 UNK         0.0000 
   5515 H(4)       44.9069   44.4951    6.0906 H         1 UNK         0.0000 
   5516 H(5)       43.7641   48.8480    5.3025 H         1 UNK         0.0000 
   5517 H(6)       44.0000   42.5376    5.3956 H         1 UNK         0.0000 
   5518 H(7)       42.4458   40.0985    4.3514 H         1 UNK         0.0000 
   5519 H(8)       43.5208   40.4635    5.6446 H         1 UNK         0.0000 
   5520 H(9)       41.8436   40.0439    5.9254 H         1 UNK         0.0000 
   5521 O(1)       40.1476   56.6810    6.2473 O.3       1 UNK         0.0000 
   5522 O(2)       38.1497   55.4409   12.2913 O.2       1 UNK         0.0000 
   5523 N(1)       40.3309   55.3903   11.6604 N.am      1 UNK         0.0000 
   5524 C(1)       40.2314   55.7492   10.2975 C.ar      1 UNK         0.0000 
   5525 C(2)       39.1493   56.4351    9.7463 C.ar      1 UNK         0.0000 
   5526 C(3)       39.1422   56.7439    8.3892 C.ar      1 UNK         0.0000 
   5527 C(4)       40.2123   56.3812    7.5752 C.ar      1 UNK         0.0000 
   5528 C(5)       41.3079   55.7228    8.1323 C.ar      1 UNK         0.0000 
   5529 C(6)       41.3132   55.4100    9.4841 C.ar      1 UNK         0.0000 
   5530 C(7)       39.3401   55.2375   12.5539 C.2       1 UNK         0.0000 
   5531 C(8)       39.7810   54.8048   13.9266 C.3       1 UNK         0.0000 
   5532 H(1)       38.3087   56.7208   10.3666 H         1 UNK         0.0000 
   5533 H(2)       38.2914   57.2738    7.9789 H         1 UNK         0.0000 
   5534 H(3)       42.1510   55.4527    7.5086 H         1 UNK         0.0000 
   5535 H(4)       42.1638   54.8969    9.9156 H         1 UNK         0.0000 
   5536 H(5)       41.0210   56.6205    5.8415 H         1 UNK         0.0000 
   5537 H(6)       41.2568   55.1456   11.9779 H         1 UNK         0.0000 
   5538 H(7)       39.7027   55.6293   14.5866 H         1 UNK         0.0000 
   5539 H(8)       40.7777   54.4477   13.9469 H         1 UNK         0.0000 
   5540 H(9)       39.1005   54.0817   14.2946 H         1 UNK         0.0000 
   5541 O(1)       44.5010   45.3595    9.4321 O.3       1 UNK         0.0000 
   5542 O(2)       46.4989   51.5283    9.5479 O.2       1 UNK         0.0000 
   5543 N(1)       44.3177   50.9239    9.3602 N.am      1 UNK         0.0000 
   5544 C(1)       44.4172   49.5155    9.4114 C.ar      1 UNK         0.0000 
   5545 C(2)       45.4993   48.8272    9.9597 C.ar      1 UNK         0.0000 
   5546 C(3)       45.5064   47.4354    9.9633 C.ar      1 UNK         0.0000 
   5547 C(4)       44.4363   46.7208    9.4309 C.ar      1 UNK         0.0000 
   5548 C(5)       43.3407   47.4088    8.9107 C.ar      1 UNK         0.0000 
   5549 C(6)       43.3354   48.7963    8.9020 C.ar      1 UNK         0.0000 
   5550 C(7)       45.3085   51.8292    9.4070 C.2       1 UNK         0.0000 
   5551 C(8)       44.8676   53.2633    9.2860 C.3       1 UNK         0.0000 
   5552 H(1)       46.3399   49.3698   10.3744 H         1 UNK         0.0000 
   5553 H(2)       46.3572   46.9190   10.3903 H         1 UNK         0.0000 
   5554 H(3)       42.4976   46.8595    8.5104 H         1 UNK         0.0000 
   5555 H(4)       42.4848   49.3298    8.4961 H         1 UNK         0.0000 
   5556 H(5)       43.6276   44.9769    9.2841 H         1 UNK         0.0000 
   5557 H(6)       43.3917   51.2874    9.1910 H         1 UNK         0.0000 
   5558 H(7)       44.9459   53.7264   10.2352 H         1 UNK         0.0000 
   5559 H(8)       43.8709   53.3615    8.9420 H         1 UNK         0.0000 
   5560 H(9)       45.5481   53.7810    8.6612 H         1 UNK         0.0000 
   5561 O(1)       34.6809   57.5572   15.5017 O.3       1 UNK         0.0000 
   5562 O(2)       36.6788   58.7973    9.4577 O.2       1 UNK         0.0000 
   5563 N(1)       34.4976   58.8479   10.0886 N.am      1 UNK         0.0000 
   5564 C(1)       34.5971   58.4890   11.4515 C.ar      1 UNK         0.0000 
   5565 C(2)       35.6792   57.8031   12.0027 C.ar      1 UNK         0.0000 
   5566 C(3)       35.6862   57.4944   13.3599 C.ar      1 UNK         0.0000 
   5567 C(4)       34.6162   57.8570   14.1738 C.ar      1 UNK         0.0000 
   5568 C(5)       33.5206   58.5154   13.6167 C.ar      1 UNK         0.0000 
   5569 C(6)       33.5153   58.8283   12.2649 C.ar      1 UNK         0.0000 
   5570 C(7)       35.4884   59.0008    9.1951 C.2       1 UNK         0.0000 
   5571 C(8)       35.0475   59.4334    7.8224 C.3       1 UNK         0.0000 
   5572 H(1)       36.5198   57.5175   11.3824 H         1 UNK         0.0000 
   5573 H(2)       36.5371   56.9645   13.7701 H         1 UNK         0.0000 
   5574 H(3)       32.6774   58.7855   14.2404 H         1 UNK         0.0000 
   5575 H(4)       32.6647   59.3414   11.8334 H         1 UNK         0.0000 
   5576 H(5)       33.8075   57.6177   15.9075 H         1 UNK         0.0000 
   5577 H(6)       33.5716   59.0927    9.7711 H         1 UNK         0.0000 
   5578 H(7)       35.1258   58.6089    7.1624 H         1 UNK         0.0000 
   5579 H(8)       34.0507   59.7905    7.8021 H         1 UNK         0.0000 
   5580 H(9)       35.7280   60.1565    7.4544 H         1 UNK         0.0000 
   5581 O(1)       35.8137   54.1964   12.3169 O.3       1 UNK         0.0000 
   5582 O(2)       33.8158   48.0276   12.2011 O.2       1 UNK         0.0000 
   5583 N(1)       35.9970   48.6320   12.3888 N.am      1 UNK         0.0000 
   5584 C(1)       35.8975   50.0404   12.3376 C.ar      1 UNK         0.0000 
   5585 C(2)       34.8154   50.7287   11.7893 C.ar      1 UNK         0.0000 
   5586 C(3)       34.8083   52.1205   11.7858 C.ar      1 UNK         0.0000 
   5587 C(4)       35.8784   52.8351   12.3181 C.ar      1 UNK         0.0000 
   5588 C(5)       36.9740   52.1472   12.8383 C.ar      1 UNK         0.0000 
   5589 C(6)       36.9793   50.7596   12.8470 C.ar      1 UNK         0.0000 
   5590 C(7)       35.0062   47.7267   12.3420 C.2       1 UNK         0.0000 
   5591 C(8)       35.4471   46.2926   12.4630 C.3       1 UNK         0.0000 
   5592 H(1)       33.9748   50.1861   11.3746 H         1 UNK         0.0000 
   5593 H(2)       33.9575   52.6369   11.3587 H         1 UNK         0.0000 
   5594 H(3)       37.8171   52.6964   13.2386 H         1 UNK         0.0000 
   5595 H(4)       37.8299   50.2261   13.2530 H         1 UNK         0.0000 
   5596 H(5)       36.6871   54.5790   12.4649 H         1 UNK         0.0000 
   5597 H(6)       36.9230   48.2685   12.5580 H         1 UNK         0.0000 
   5598 H(7)       35.3688   45.8295   11.5138 H         1 UNK         0.0000 
   5599 H(8)       36.4438   46.1944   12.8070 H         1 UNK         0.0000 
   5600 H(9)       34.7666   45.7749   13.0878 H         1 UNK         0.0000 
   5601 O(1)       40.1476   62.4120   13.4097 O.3       1 UNK         0.0000 
   5602 O(2)       38.1497   61.1719   19.4537 O.2       1 UNK         0.0000 
   5603 N(1)       40.3309   61.1213   18.8228 N.am      1 UNK         0.0000 
   5604 C(1)       40.2314   61.4802   17.4599 C.ar      1 UNK         0.0000 
   5605 C(2)       39.1493   62.1661   16.9087 C.ar      1 UNK         0.0000 
   5606 C(3)       39.1422   62.4748   15.5516 C.ar      1 UNK         0.0000 
   5607 C(4)       40.2123   62.1122   14.7376 C.ar      1 UNK         0.0000 
   5608 C(5)       41.3079   61.4538   15.2947 C.ar      1 UNK         0.0000 
   5609 C(6)       41.3132   61.1409   16.6465 C.ar      1 UNK         0.0000 
   5610 C(7)       39.3401   60.9684   19.7163 C.2       1 UNK         0.0000 
   5611 C(8)       39.7810   60.5358   21.0890 C.3       1 UNK         0.0000 
   5612 H(1)       38.3087   62.4517   17.5290 H         1 UNK         0.0000 
   5613 H(2)       38.2914   63.0047   15.1413 H         1 UNK         0.0000 
   5614 H(3)       42.1510   61.1837   14.6710 H         1 UNK         0.0000 
   5615 H(4)       42.1638   60.6279   17.0780 H         1 UNK         0.0000 
   5616 H(5)       41.0210   62.3515   13.0039 H         1 UNK         0.0000 
   5617 H(6)       41.2568   60.8765   19.1403 H         1 UNK         0.0000 
   5618 H(7)       39.7027   61.3603   21.7490 H         1 UNK         0.0000 
   5619 H(8)       40.7777   60.1787   21.1093 H         1 UNK         0.0000 
   5620 H(9)       39.1005   59.8127   21.4570 H         1 UNK         0.0000 
   5621 O(1)       44.5010   51.0905   16.5945 O.3       1 UNK         0.0000 
   5622 O(2)       46.4989   57.2593   16.7103 O.2       1 UNK         0.0000 
   5623 N(1)       44.3177   56.6549   16.5226 N.am      1 UNK         0.0000 
   5624 C(1)       44.4172   55.2464   16.5738 C.ar      1 UNK         0.0000 
   5625 C(2)       45.4993   54.5582   17.1221 C.ar      1 UNK         0.0000 
   5626 C(3)       45.5064   53.1664   17.1257 C.ar      1 UNK         0.0000 
   5627 C(4)       44.4363   52.4518   16.5933 C.ar      1 UNK         0.0000 
   5628 C(5)       43.3407   53.1397   16.0731 C.ar      1 UNK         0.0000 
   5629 C(6)       43.3354   54.5273   16.0644 C.ar      1 UNK         0.0000 
   5630 C(7)       45.3085   57.5602   16.5694 C.2       1 UNK         0.0000 
   5631 C(8)       44.8676   58.9943   16.4484 C.3       1 UNK         0.0000 
   5632 H(1)       46.3399   55.1008   17.5368 H         1 UNK         0.0000 
   5633 H(2)       46.3572   52.6499   17.5527 H         1 UNK         0.0000 
   5634 H(3)       42.4976   52.5905   15.6728 H         1 UNK         0.0000 
   5635 H(4)       42.4848   55.0608   15.6585 H         1 UNK         0.0000 
   5636 H(5)       43.6276   50.7079   16.4465 H         1 UNK         0.0000 
   5637 H(6)       43.3917   57.0183   16.3534 H         1 UNK         0.0000 
   5638 H(7)       44.9459   59.4574   17.3976 H         1 UNK         0.0000 
   5639 H(8)       43.8709   59.0924   16.1044 H         1 UNK         0.0000 
   5640 H(9)       45.5481   59.5120   15.8236 H         1 UNK         0.0000 
   5641 O(1)       40.1672   48.6059   22.6641 O.3       1 UNK         0.0000 
   5642 O(2)       42.1650   49.8459   16.6201 O.2       1 UNK         0.0000 
   5643 N(1)       39.9838   49.8966   17.2510 N.am      1 UNK         0.0000 
   5644 C(1)       40.0833   49.5377   18.6139 C.ar      1 UNK         0.0000 
   5645 C(2)       41.1654   48.8518   19.1651 C.ar      1 UNK         0.0000 
   5646 C(3)       41.1725   48.5430   20.5223 C.ar      1 UNK         0.0000 
   5647 C(4)       40.1024   48.9057   21.3362 C.ar      1 UNK         0.0000 
   5648 C(5)       39.0068   49.5641   20.7791 C.ar      1 UNK         0.0000 
   5649 C(6)       39.0015   49.8769   19.4273 C.ar      1 UNK         0.0000 
   5650 C(7)       40.9746   50.0494   16.3575 C.2       1 UNK         0.0000 
   5651 C(8)       40.5337   50.4820   14.9848 C.3       1 UNK         0.0000 
   5652 H(1)       42.0060   48.5661   18.5448 H         1 UNK         0.0000 
   5653 H(2)       42.0233   48.0131   20.9325 H         1 UNK         0.0000 
   5654 H(3)       38.1637   49.8341   21.4028 H         1 UNK         0.0000 
   5655 H(4)       38.1509   50.3900   18.9958 H         1 UNK         0.0000 
   5656 H(5)       39.2937   48.6664   23.0699 H         1 UNK         0.0000 
   5657 H(6)       39.0579   50.1413   16.9335 H         1 UNK         0.0000 
   5658 H(7)       40.6120   49.6576   14.3248 H         1 UNK         0.0000 
   5659 H(8)       39.5370   50.8392   14.9645 H         1 UNK         0.0000 
   5660 H(9)       41.2142   51.2051   14.6168 H         1 UNK         0.0000 
   5661 O(1)       42.8907   59.9274   19.4793 O.3       1 UNK         0.0000 
   5662 O(2)       40.8928   53.7586   19.3635 O.2       1 UNK         0.0000 
   5663 N(1)       43.0740   54.3630   19.5512 N.am      1 UNK         0.0000 
   5664 C(1)       42.9745   55.7714   19.5000 C.ar      1 UNK         0.0000 
   5665 C(2)       41.8924   56.4596   18.9517 C.ar      1 UNK         0.0000 
   5666 C(3)       41.8853   57.8514   18.9482 C.ar      1 UNK         0.0000 
   5667 C(4)       42.9554   58.5660   19.4805 C.ar      1 UNK         0.0000 
   5668 C(5)       44.0510   57.8781   20.0007 C.ar      1 UNK         0.0000 
   5669 C(6)       44.0563   56.4906   20.0094 C.ar      1 UNK         0.0000 
   5670 C(7)       42.0832   53.4577   19.5044 C.2       1 UNK         0.0000 
   5671 C(8)       42.5241   52.0235   19.6254 C.3       1 UNK         0.0000 
   5672 H(1)       41.0518   55.9171   18.5370 H         1 UNK         0.0000 
   5673 H(2)       41.0345   58.3679   18.5211 H         1 UNK         0.0000 
   5674 H(3)       44.8941   58.4274   20.4010 H         1 UNK         0.0000 
   5675 H(4)       44.9069   55.9571   20.4154 H         1 UNK         0.0000 
   5676 H(5)       43.7641   60.3100   19.6273 H         1 UNK         0.0000 
   5677 H(6)       44.0000   53.9995   19.7204 H         1 UNK         0.0000 
   5678 H(7)       42.4458   51.5604   18.6762 H         1 UNK         0.0000 
   5679 H(8)       43.5208   51.9254   19.9694 H         1 UNK         0.0000 
   5680 H(9)       41.8436   51.5059   20.2502 H         1 UNK         0.0000 
   5681 O(1)       38.5568   53.4606   20.5721 O.3       1 UNK         0.0000 
   5682 O(2)       36.5590   52.2205   26.6161 O.2       1 UNK         0.0000 
   5683 N(1)       38.7401   52.1699   25.9852 N.am      1 UNK         0.0000 
   5684 C(1)       38.6406   52.5288   24.6223 C.ar      1 UNK         0.0000 
   5685 C(2)       37.5585   53.2147   24.0711 C.ar      1 UNK         0.0000 
   5686 C(3)       37.5515   53.5235   22.7140 C.ar      1 UNK         0.0000 
   5687 C(4)       38.6215   53.1608   21.9000 C.ar      1 UNK         0.0000 
   5688 C(5)       39.7171   52.5024   22.4571 C.ar      1 UNK         0.0000 
   5689 C(6)       39.7224   52.1896   23.8089 C.ar      1 UNK         0.0000 
   5690 C(7)       37.7493   52.0171   26.8787 C.2       1 UNK         0.0000 
   5691 C(8)       38.1902   51.5844   28.2514 C.3       1 UNK         0.0000 
   5692 H(1)       36.7180   53.5004   24.6914 H         1 UNK         0.0000 
   5693 H(2)       36.7006   54.0534   22.3037 H         1 UNK         0.0000 
   5694 H(3)       40.5603   52.2323   21.8334 H         1 UNK         0.0000 
   5695 H(4)       40.5730   51.6765   24.2404 H         1 UNK         0.0000 
   5696 H(5)       39.4302   53.4001   20.1663 H         1 UNK         0.0000 
   5697 H(6)       39.6661   51.9252   26.3027 H         1 UNK         0.0000 
   5698 H(7)       38.1119   52.4089   28.9114 H         1 UNK         0.0000 
   5699 H(8)       39.1870   51.2273   28.2717 H         1 UNK         0.0000 
   5700 H(9)       37.5097   50.8613   28.6194 H         1 UNK         0.0000 
   5701 O(1)       37.4240   56.8215   23.7569 O.3       1 UNK         0.0000 
   5702 O(2)       39.4219   62.9902   23.8727 O.2       1 UNK         0.0000 
   5703 N(1)       37.2407   62.3858   23.6850 N.am      1 UNK         0.0000 
   5704 C(1)       37.3402   60.9774   23.7362 C.ar      1 UNK         0.0000 
   5705 C(2)       38.4223   60.2892   24.2845 C.ar      1 UNK         0.0000 
   5706 C(3)       38.4294   58.8974   24.2881 C.ar      1 UNK         0.0000 
   5707 C(4)       37.3593   58.1828   23.7557 C.ar      1 UNK         0.0000 
   5708 C(5)       36.2637   58.8707   23.2355 C.ar      1 UNK         0.0000 
   5709 C(6)       36.2584   60.2582   23.2268 C.ar      1 UNK         0.0000 
   5710 C(7)       38.2315   63.2911   23.7318 C.2       1 UNK         0.0000 
   5711 C(8)       37.7906   64.7253   23.6108 C.3       1 UNK         0.0000 
   5712 H(1)       39.2629   60.8317   24.6992 H         1 UNK         0.0000 
   5713 H(2)       39.2802   58.3809   24.7151 H         1 UNK         0.0000 
   5714 H(3)       35.4206   58.3214   22.8352 H         1 UNK         0.0000 
   5715 H(4)       35.4078   60.7917   22.8209 H         1 UNK         0.0000 
   5716 H(5)       36.5506   56.4389   23.6089 H         1 UNK         0.0000 
   5717 H(6)       36.3147   62.7493   23.5158 H         1 UNK         0.0000 
   5718 H(7)       37.8689   65.1884   24.5600 H         1 UNK         0.0000 
   5719 H(8)       36.7939   64.8234   23.2668 H         1 UNK         0.0000 
   5720 H(9)       38.4711   65.2429   22.9860 H         1 UNK         0.0000 
   5721 O(1)       41.7579   51.8263    8.3393 O.3       1 UNK         0.0000 
   5722 O(2)       43.7557   53.0663    2.2953 O.2       1 UNK         0.0000 
   5723 N(1)       41.5746   53.1170    2.9262 N.am      1 UNK         0.0000 
   5724 C(1)       41.6741   52.7581    4.2891 C.ar      1 UNK         0.0000 
   5725 C(2)       42.7562   52.0722    4.8403 C.ar      1 UNK         0.0000 
   5726 C(3)       42.7632   51.7634    6.1975 C.ar      1 UNK         0.0000 
   5727 C(4)       41.6932   52.1261    7.0114 C.ar      1 UNK         0.0000 
   5728 C(5)       40.5976   52.7845    6.4543 C.ar      1 UNK         0.0000 
   5729 C(6)       40.5923   53.0973    5.1025 C.ar      1 UNK         0.0000 
   5730 C(7)       42.5654   53.2698    2.0327 C.2       1 UNK         0.0000 
   5731 C(8)       42.1245   53.7024    0.6600 C.3       1 UNK         0.0000 
   5732 H(1)       43.5968   51.7865    4.2200 H         1 UNK         0.0000 
   5733 H(2)       43.6141   51.2335    6.6077 H         1 UNK         0.0000 
   5734 H(3)       39.7544   53.0545    7.0780 H         1 UNK         0.0000 
   5735 H(4)       39.7417   53.6104    4.6710 H         1 UNK         0.0000 
   5736 H(5)       40.8845   51.8868    8.7451 H         1 UNK         0.0000 
   5737 H(6)       40.6486   53.3617    2.6087 H         1 UNK         0.0000 
   5738 H(7)       42.2028   52.8780    0.0000 H         1 UNK         0.0000 
   5739 H(8)       41.1277   54.0596    0.6397 H         1 UNK         0.0000 
   5740 H(9)       42.8050   54.4255    0.2920 H         1 UNK         0.0000 
   5741 O(1)       44.4814   63.1478    5.1545 O.3       1 UNK         0.0000 
   5742 O(2)       42.4836   56.9790    5.0387 O.2       1 UNK         0.0000 
   5743 N(1)       44.6648   57.5834    5.2264 N.am      1 UNK         0.0000 
   5744 C(1)       44.5653   58.9918    5.1752 C.ar      1 UNK         0.0000 
   5745 C(2)       43.4832   59.6800    4.6269 C.ar      1 UNK         0.0000 
   5746 C(3)       43.4761   61.0718    4.6234 C.ar      1 UNK         0.0000 
   5747 C(4)       44.5462   61.7864    5.1557 C.ar      1 UNK         0.0000 
   5748 C(5)       45.6418   61.0985    5.6759 C.ar      1 UNK         0.0000 
   5749 C(6)       45.6471   59.7110    5.6846 C.ar      1 UNK         0.0000 
   5750 C(7)       43.6740   56.6781    5.1796 C.2       1 UNK         0.0000 
   5751 C(8)       44.1149   55.2439    5.3006 C.3       1 UNK         0.0000 
   5752 H(1)       42.6426   59.1375    4.2122 H         1 UNK         0.0000 
   5753 H(2)       42.6253   61.5883    4.1963 H         1 UNK         0.0000 
   5754 H(3)       46.4849   61.6478    6.0762 H         1 UNK         0.0000 
   5755 H(4)       46.4977   59.1775    6.0906 H         1 UNK         0.0000 
   5756 H(5)       45.3549   63.5304    5.3025 H         1 UNK         0.0000 
   5757 H(6)       45.5907   57.2199    5.3956 H         1 UNK         0.0000 
   5758 H(7)       44.0366   54.7808    4.3514 H         1 UNK         0.0000 
   5759 H(8)       45.1116   55.1458    5.6446 H         1 UNK         0.0000 
   5760 H(9)       43.4344   54.7263    5.9254 H         1 UNK         0.0000 
   5761 O(1)       41.7383   71.3634    6.2473 O.3       1 UNK         0.0000 
   5762 O(2)       39.7405   70.1233   12.2913 O.2       1 UNK         0.0000 
   5763 N(1)       41.9217   70.0726   11.6604 N.am      1 UNK         0.0000 
   5764 C(1)       41.8222   70.4316   10.2975 C.ar      1 UNK         0.0000 
   5765 C(2)       40.7401   71.1174    9.7463 C.ar      1 UNK         0.0000 
   5766 C(3)       40.7330   71.4262    8.3892 C.ar      1 UNK         0.0000 
   5767 C(4)       41.8030   71.0635    7.5752 C.ar      1 UNK         0.0000 
   5768 C(5)       42.8987   70.4052    8.1323 C.ar      1 UNK         0.0000 
   5769 C(6)       42.9040   70.0923    9.4841 C.ar      1 UNK         0.0000 
   5770 C(7)       40.9309   69.9198   12.5539 C.2       1 UNK         0.0000 
   5771 C(8)       41.3717   69.4872   13.9266 C.3       1 UNK         0.0000 
   5772 H(1)       39.8995   71.4031   10.3666 H         1 UNK         0.0000 
   5773 H(2)       39.8822   71.9561    7.9789 H         1 UNK         0.0000 
   5774 H(3)       43.7418   70.1351    7.5086 H         1 UNK         0.0000 
   5775 H(4)       43.7546   69.5792    9.9156 H         1 UNK         0.0000 
   5776 H(5)       42.6118   71.3028    5.8415 H         1 UNK         0.0000 
   5777 H(6)       42.8476   69.8279   11.9779 H         1 UNK         0.0000 
   5778 H(7)       41.2935   70.3116   14.5866 H         1 UNK         0.0000 
   5779 H(8)       42.3685   69.1300   13.9469 H         1 UNK         0.0000 
   5780 H(9)       40.6913   68.7641   14.2946 H         1 UNK         0.0000 
   5781 O(1)       46.0918   60.0419    9.4321 O.3       1 UNK         0.0000 
   5782 O(2)       48.0896   66.2106    9.5479 O.2       1 UNK         0.0000 
   5783 N(1)       45.9085   65.6062    9.3602 N.am      1 UNK         0.0000 
   5784 C(1)       46.0080   64.1978    9.4114 C.ar      1 UNK         0.0000 
   5785 C(2)       47.0901   63.5096    9.9597 C.ar      1 UNK         0.0000 
   5786 C(3)       47.0971   62.1178    9.9633 C.ar      1 UNK         0.0000 
   5787 C(4)       46.0271   61.4032    9.4309 C.ar      1 UNK         0.0000 
   5788 C(5)       44.9315   62.0911    8.9107 C.ar      1 UNK         0.0000 
   5789 C(6)       44.9262   63.4786    8.9020 C.ar      1 UNK         0.0000 
   5790 C(7)       46.8993   66.5115    9.4070 C.2       1 UNK         0.0000 
   5791 C(8)       46.4584   67.9457    9.2860 C.3       1 UNK         0.0000 
   5792 H(1)       47.9306   64.0521   10.3744 H         1 UNK         0.0000 
   5793 H(2)       47.9480   61.6013   10.3903 H         1 UNK         0.0000 
   5794 H(3)       44.0883   61.5418    8.5104 H         1 UNK         0.0000 
   5795 H(4)       44.0756   64.0121    8.4961 H         1 UNK         0.0000 
   5796 H(5)       45.2184   59.6593    9.2841 H         1 UNK         0.0000 
   5797 H(6)       44.9825   65.9697    9.1910 H         1 UNK         0.0000 
   5798 H(7)       46.5367   68.4088   10.2352 H         1 UNK         0.0000 
   5799 H(8)       45.4616   68.0438    8.9420 H         1 UNK         0.0000 
   5800 H(9)       47.1389   68.4633    8.6612 H         1 UNK         0.0000 
   5801 O(1)       36.2717   72.2396   15.5017 O.3       1 UNK         0.0000 
   5802 O(2)       38.2695   73.4796    9.4577 O.2       1 UNK         0.0000 
   5803 N(1)       36.0884   73.5303   10.0886 N.am      1 UNK         0.0000 
   5804 C(1)       36.1878   73.1714   11.4515 C.ar      1 UNK         0.0000 
   5805 C(2)       37.2700   72.4855   12.0027 C.ar      1 UNK         0.0000 
   5806 C(3)       37.2770   72.1767   13.3599 C.ar      1 UNK         0.0000 
   5807 C(4)       36.2070   72.5394   14.1738 C.ar      1 UNK         0.0000 
   5808 C(5)       35.1114   73.1977   13.6167 C.ar      1 UNK         0.0000 
   5809 C(6)       35.1061   73.5106   12.2649 C.ar      1 UNK         0.0000 
   5810 C(7)       37.0792   73.6831    9.1951 C.2       1 UNK         0.0000 
   5811 C(8)       36.6383   74.1157    7.8224 C.3       1 UNK         0.0000 
   5812 H(1)       38.1105   72.1998   11.3824 H         1 UNK         0.0000 
   5813 H(2)       38.1278   71.6468   13.7701 H         1 UNK         0.0000 
   5814 H(3)       34.2682   73.4678   14.2404 H         1 UNK         0.0000 
   5815 H(4)       34.2555   74.0237   11.8334 H         1 UNK         0.0000 
   5816 H(5)       35.3983   72.3001   15.9075 H         1 UNK         0.0000 
   5817 H(6)       35.1624   73.7750    9.7711 H         1 UNK         0.0000 
   5818 H(7)       36.7166   73.2913    7.1624 H         1 UNK         0.0000 
   5819 H(8)       35.6415   74.4729    7.8021 H         1 UNK         0.0000 
   5820 H(9)       37.3188   74.8388    7.4544 H         1 UNK         0.0000 
   5821 O(1)       37.4044   68.8787   12.3169 O.3       1 UNK         0.0000 
   5822 O(2)       35.4066   62.7099   12.2011 O.2       1 UNK         0.0000 
   5823 N(1)       37.5878   63.3143   12.3888 N.am      1 UNK         0.0000 
   5824 C(1)       37.4883   64.7228   12.3376 C.ar      1 UNK         0.0000 
   5825 C(2)       36.4062   65.4110   11.7893 C.ar      1 UNK         0.0000 
   5826 C(3)       36.3991   66.8028   11.7858 C.ar      1 UNK         0.0000 
   5827 C(4)       37.4692   67.5174   12.3181 C.ar      1 UNK         0.0000 
   5828 C(5)       38.5648   66.8295   12.8383 C.ar      1 UNK         0.0000 
   5829 C(6)       38.5701   65.4419   12.8470 C.ar      1 UNK         0.0000 
   5830 C(7)       36.5970   62.4090   12.3420 C.2       1 UNK         0.0000 
   5831 C(8)       37.0379   60.9749   12.4630 C.3       1 UNK         0.0000 
   5832 H(1)       35.5656   64.8685   11.3746 H         1 UNK         0.0000 
   5833 H(2)       35.5483   67.3193   11.3587 H         1 UNK         0.0000 
   5834 H(3)       39.4079   67.3787   13.2386 H         1 UNK         0.0000 
   5835 H(4)       39.4207   64.9084   13.2530 H         1 UNK         0.0000 
   5836 H(5)       38.2779   69.2613   12.4649 H         1 UNK         0.0000 
   5837 H(6)       38.5137   62.9509   12.5580 H         1 UNK         0.0000 
   5838 H(7)       36.9596   60.5118   11.5138 H         1 UNK         0.0000 
   5839 H(8)       38.0346   60.8768   12.8070 H         1 UNK         0.0000 
   5840 H(9)       36.3574   60.4572   13.0878 H         1 UNK         0.0000 
   5841 O(1)       41.7383   77.0943   13.4097 O.3       1 UNK         0.0000 
   5842 O(2)       39.7405   75.8542   19.4537 O.2       1 UNK         0.0000 
   5843 N(1)       41.9217   75.8036   18.8228 N.am      1 UNK         0.0000 
   5844 C(1)       41.8222   76.1625   17.4599 C.ar      1 UNK         0.0000 
   5845 C(2)       40.7401   76.8484   16.9087 C.ar      1 UNK         0.0000 
   5846 C(3)       40.7330   77.1572   15.5516 C.ar      1 UNK         0.0000 
   5847 C(4)       41.8030   76.7945   14.7376 C.ar      1 UNK         0.0000 
   5848 C(5)       42.8987   76.1361   15.2947 C.ar      1 UNK         0.0000 
   5849 C(6)       42.9040   75.8232   16.6465 C.ar      1 UNK         0.0000 
   5850 C(7)       40.9309   75.6508   19.7163 C.2       1 UNK         0.0000 
   5851 C(8)       41.3717   75.2181   21.0890 C.3       1 UNK         0.0000 
   5852 H(1)       39.8995   77.1341   17.5290 H         1 UNK         0.0000 
   5853 H(2)       39.8822   77.6871   15.1413 H         1 UNK         0.0000 
   5854 H(3)       43.7418   75.8660   14.6710 H         1 UNK         0.0000 
   5855 H(4)       43.7546   75.3102   17.0780 H         1 UNK         0.0000 
   5856 H(5)       42.6118   77.0338   13.0039 H         1 UNK         0.0000 
   5857 H(6)       42.8476   75.5589   19.1403 H         1 UNK         0.0000 
   5858 H(7)       41.2935   76.0426   21.7490 H         1 UNK         0.0000 
   5859 H(8)       42.3685   74.8610   21.1093 H         1 UNK         0.0000 
   5860 H(9)       40.6913   74.4950   21.4570 H         1 UNK         0.0000 
   5861 O(1)       46.0918   65.7728   16.5945 O.3       1 UNK         0.0000 
   5862 O(2)       48.0896   71.9416   16.7103 O.2       1 UNK         0.0000 
   5863 N(1)       45.9085   71.3372   16.5226 N.am      1 UNK         0.0000 
   5864 C(1)       46.0080   69.9288   16.5738 C.ar      1 UNK         0.0000 
   5865 C(2)       47.0901   69.2405   17.1221 C.ar      1 UNK         0.0000 
   5866 C(3)       47.0971   67.8487   17.1257 C.ar      1 UNK         0.0000 
   5867 C(4)       46.0271   67.1341   16.5933 C.ar      1 UNK         0.0000 
   5868 C(5)       44.9315   67.8221   16.0731 C.ar      1 UNK         0.0000 
   5869 C(6)       44.9262   69.2096   16.0644 C.ar      1 UNK         0.0000 
   5870 C(7)       46.8993   72.2425   16.5694 C.2       1 UNK         0.0000 
   5871 C(8)       46.4584   73.6766   16.4484 C.3       1 UNK         0.0000 
   5872 H(1)       47.9306   69.7831   17.5368 H         1 UNK         0.0000 
   5873 H(2)       47.9480   67.3323   17.5527 H         1 UNK         0.0000 
   5874 H(3)       44.0883   67.2728   15.6728 H         1 UNK         0.0000 
   5875 H(4)       44.0756   69.7431   15.6585 H         1 UNK         0.0000 
   5876 H(5)       45.2184   65.3902   16.4465 H         1 UNK         0.0000 
   5877 H(6)       44.9825   71.7007   16.3534 H         1 UNK         0.0000 
   5878 H(7)       46.5367   74.1397   17.3976 H         1 UNK         0.0000 
   5879 H(8)       45.4616   73.7748   16.1044 H         1 UNK         0.0000 
   5880 H(9)       47.1389   74.1943   15.8236 H         1 UNK         0.0000 
   5881 O(1)       41.7579   63.2882   22.6641 O.3       1 UNK         0.0000 
   5882 O(2)       43.7557   64.5283   16.6201 O.2       1 UNK         0.0000 
   5883 N(1)       41.5746   64.5789   17.2510 N.am      1 UNK         0.0000 
   5884 C(1)       41.6741   64.2200   18.6139 C.ar      1 UNK         0.0000 
   5885 C(2)       42.7562   63.5341   19.1651 C.ar      1 UNK         0.0000 
   5886 C(3)       42.7632   63.2253   20.5223 C.ar      1 UNK         0.0000 
   5887 C(4)       41.6932   63.5880   21.3362 C.ar      1 UNK         0.0000 
   5888 C(5)       40.5976   64.2464   20.7791 C.ar      1 UNK         0.0000 
   5889 C(6)       40.5923   64.5593   19.4273 C.ar      1 UNK         0.0000 
   5890 C(7)       42.5654   64.7317   16.3575 C.2       1 UNK         0.0000 
   5891 C(8)       42.1245   65.1644   14.9848 C.3       1 UNK         0.0000 
   5892 H(1)       43.5968   63.2484   18.5448 H         1 UNK         0.0000 
   5893 H(2)       43.6141   62.6954   20.9325 H         1 UNK         0.0000 
   5894 H(3)       39.7544   64.5165   21.4028 H         1 UNK         0.0000 
   5895 H(4)       39.7417   65.0723   18.9958 H         1 UNK         0.0000 
   5896 H(5)       40.8845   63.3487   23.0699 H         1 UNK         0.0000 
   5897 H(6)       40.6486   64.8236   16.9335 H         1 UNK         0.0000 
   5898 H(7)       42.2028   64.3399   14.3248 H         1 UNK         0.0000 
   5899 H(8)       41.1277   65.5215   14.9645 H         1 UNK         0.0000 
   5900 H(9)       42.8050   65.8875   14.6168 H         1 UNK         0.0000 
   5901 O(1)       44.4814   74.6097   19.4793 O.3       1 UNK         0.0000 
   5902 O(2)       42.4836   68.4409   19.3635 O.2       1 UNK         0.0000 
   5903 N(1)       44.6648   69.0453   19.5512 N.am      1 UNK         0.0000 
   5904 C(1)       44.5653   70.4537   19.5000 C.ar      1 UNK         0.0000 
   5905 C(2)       43.4832   71.1420   18.9517 C.ar      1 UNK         0.0000 
   5906 C(3)       43.4761   72.5338   18.9482 C.ar      1 UNK         0.0000 
   5907 C(4)       44.5462   73.2484   19.4805 C.ar      1 UNK         0.0000 
   5908 C(5)       45.6418   72.5605   20.0007 C.ar      1 UNK         0.0000 
   5909 C(6)       45.6471   71.1729   20.0094 C.ar      1 UNK         0.0000 
   5910 C(7)       43.6740   68.1400   19.5044 C.2       1 UNK         0.0000 
   5911 C(8)       44.1149   66.7059   19.6254 C.3       1 UNK         0.0000 
   5912 H(1)       42.6426   70.5994   18.5370 H         1 UNK         0.0000 
   5913 H(2)       42.6253   73.0502   18.5211 H         1 UNK         0.0000 
   5914 H(3)       46.4849   73.1097   20.4010 H         1 UNK         0.0000 
   5915 H(4)       46.4977   70.6394   20.4154 H         1 UNK         0.0000 
   5916 H(5)       45.3549   74.9923   19.6273 H         1 UNK         0.0000 
   5917 H(6)       45.5907   68.6818   19.7204 H         1 UNK         0.0000 
   5918 H(7)       44.0366   66.2428   18.6762 H         1 UNK         0.0000 
   5919 H(8)       45.1116   66.6077   19.9694 H         1 UNK         0.0000 
   5920 H(9)       43.4344   66.1882   20.2502 H         1 UNK         0.0000 
   5921 O(1)       40.1476   68.1430   20.5721 O.3       1 UNK         0.0000 
   5922 O(2)       38.1497   66.9029   26.6161 O.2       1 UNK         0.0000 
   5923 N(1)       40.3309   66.8522   25.9852 N.am      1 UNK         0.0000 
   5924 C(1)       40.2314   67.2112   24.6223 C.ar      1 UNK         0.0000 
   5925 C(2)       39.1493   67.8970   24.0711 C.ar      1 UNK         0.0000 
   5926 C(3)       39.1422   68.2058   22.7140 C.ar      1 UNK         0.0000 
   5927 C(4)       40.2123   67.8431   21.9000 C.ar      1 UNK         0.0000 
   5928 C(5)       41.3079   67.1848   22.4571 C.ar      1 UNK         0.0000 
   5929 C(6)       41.3132   66.8719   23.8089 C.ar      1 UNK         0.0000 
   5930 C(7)       39.3401   66.6994   26.8787 C.2       1 UNK         0.0000 
   5931 C(8)       39.7810   66.2668   28.2514 C.3       1 UNK         0.0000 
   5932 H(1)       38.3087   68.1827   24.6914 H         1 UNK         0.0000 
   5933 H(2)       38.2914   68.7357   22.3037 H         1 UNK         0.0000 
   5934 H(3)       42.1510   66.9147   21.8334 H         1 UNK         0.0000 
   5935 H(4)       42.1638   66.3588   24.2404 H         1 UNK         0.0000 
   5936 H(5)       41.0210   68.0824   20.1663 H         1 UNK         0.0000 
   5937 H(6)       41.2568   66.6075   26.3027 H         1 UNK         0.0000 
   5938 H(7)       39.7027   67.0912   28.9114 H         1 UNK         0.0000 
   5939 H(8)       40.7777   65.9096   28.2717 H         1 UNK         0.0000 
   5940 H(9)       39.1005   65.5437   28.6194 H         1 UNK         0.0000 
   5941 O(1)       39.0148   71.5038   23.7569 O.3       1 UNK         0.0000 
   5942 O(2)       41.0126   77.6726   23.8727 O.2       1 UNK         0.0000 
   5943 N(1)       38.8315   77.0682   23.6850 N.am      1 UNK         0.0000 
   5944 C(1)       38.9310   75.6597   23.7362 C.ar      1 UNK         0.0000 
   5945 C(2)       40.0131   74.9715   24.2845 C.ar      1 UNK         0.0000 
   5946 C(3)       40.0201   73.5797   24.2881 C.ar      1 UNK         0.0000 
   5947 C(4)       38.9501   72.8651   23.7557 C.ar      1 UNK         0.0000 
   5948 C(5)       37.8545   73.5530   23.2355 C.ar      1 UNK         0.0000 
   5949 C(6)       37.8492   74.9406   23.2268 C.ar      1 UNK         0.0000 
   5950 C(7)       39.8223   77.9735   23.7318 C.2       1 UNK         0.0000 
   5951 C(8)       39.3814   79.4076   23.6108 C.3       1 UNK         0.0000 
   5952 H(1)       40.8536   75.5140   24.6992 H         1 UNK         0.0000 
   5953 H(2)       40.8710   73.0632   24.7151 H         1 UNK         0.0000 
   5954 H(3)       37.0113   73.0038   22.8352 H         1 UNK         0.0000 
   5955 H(4)       36.9986   75.4741   22.8209 H         1 UNK         0.0000 
   5956 H(5)       38.1414   71.1212   23.6089 H         1 UNK         0.0000 
   5957 H(6)       37.9055   77.4316   23.5158 H         1 UNK         0.0000 
   5958 H(7)       39.4597   79.8707   24.5600 H         1 UNK         0.0000 
   5959 H(8)       38.3846   79.5057   23.2668 H         1 UNK         0.0000 
   5960 H(9)       40.0619   79.9253   22.9860 H         1 UNK         0.0000 
   5961 O(1)       43.3487   66.5086    8.3393 O.3       1 UNK         0.0000 
   5962 O(2)       45.3465   67.7487    2.2953 O.2       1 UNK         0.0000 
   5963 N(1)       43.1654   67.7993    2.9262 N.am      1 UNK         0.0000 
   5964 C(1)       43.2648   67.4404    4.2891 C.ar      1 UNK         0.0000 
   5965 C(2)       44.3470   66.7545    4.8403 C.ar      1 UNK         0.0000 
   5966 C(3)       44.3540   66.4457    6.1975 C.ar      1 UNK         0.0000 
   5967 C(4)       43.2840   66.8084    7.0114 C.ar      1 UNK         0.0000 
   5968 C(5)       42.1884   67.4668    6.4543 C.ar      1 UNK         0.0000 
   5969 C(6)       42.1831   67.7797    5.1025 C.ar      1 UNK         0.0000 
   5970 C(7)       44.1562   67.9521    2.0327 C.2       1 UNK         0.0000 
   5971 C(8)       43.7153   68.3848    0.6600 C.3       1 UNK         0.0000 
   5972 H(1)       45.1875   66.4688    4.2200 H         1 UNK         0.0000 
   5973 H(2)       45.2048   65.9158    6.6077 H         1 UNK         0.0000 
   5974 H(3)       41.3452   67.7369    7.0780 H         1 UNK         0.0000 
   5975 H(4)       41.3325   68.2927    4.6710 H         1 UNK         0.0000 
   5976 H(5)       42.4753   66.5691    8.7451 H         1 UNK         0.0000 
   5977 H(6)       42.2394   68.0440    2.6087 H         1 UNK         0.0000 
   5978 H(7)       43.7936   67.5603    0.0000 H         1 UNK         0.0000 
   5979 H(8)       42.7185   68.7419    0.6397 H         1 UNK         0.0000 
   5980 H(9)       44.3958   69.1079    0.2920 H         1 UNK         0.0000 
   5981 O(1)       46.0722   77.8301    5.1545 O.3       1 UNK         0.0000 
   5982 O(2)       44.0744   71.6613    5.0387 O.2       1 UNK         0.0000 
   5983 N(1)       46.2556   72.2657    5.2264 N.am      1 UNK         0.0000 
   5984 C(1)       46.1561   73.6741    5.1752 C.ar      1 UNK         0.0000 
   5985 C(2)       45.0739   74.3624    4.6269 C.ar      1 UNK         0.0000 
   5986 C(3)       45.0669   75.7542    4.6234 C.ar      1 UNK         0.0000 
   5987 C(4)       46.1369   76.4688    5.1557 C.ar      1 UNK         0.0000 
   5988 C(5)       47.2325   75.7809    5.6759 C.ar      1 UNK         0.0000 
   5989 C(6)       47.2379   74.3933    5.6846 C.ar      1 UNK         0.0000 
   5990 C(7)       45.2648   71.3604    5.1796 C.2       1 UNK         0.0000 
   5991 C(8)       45.7056   69.9263    5.3006 C.3       1 UNK         0.0000 
   5992 H(1)       44.2334   73.8198    4.2122 H         1 UNK         0.0000 
   5993 H(2)       44.2161   76.2706    4.1963 H         1 UNK         0.0000 
   5994 H(3)       48.0757   76.3301    6.0762 H         1 UNK         0.0000 
   5995 H(4)       48.0885   73.8598    6.0906 H         1 UNK         0.0000 
   5996 H(5)       46.9457   78.2127    5.3025 H         1 UNK         0.0000 
   5997 H(6)       47.1815   71.9022    5.3956 H         1 UNK         0.0000 
   5998 H(7)       45.6274   69.4632    4.3514 H         1 UNK         0.0000 
   5999 H(8)       46.7024   69.8281    5.6446 H         1 UNK         0.0000 
   6000 H(9)       45.0252   69.4086    5.9254 H         1 UNK         0.0000 
@<TRIPOS>BOND
     1    1   16 1    
     2    1    7 1    
     3    2   10 2    
     4    3   17 1    
     5    3   10 am   BACKBONE|DICT|INTERRES
     6    3    4 1    
     7    4    5 ar   
     8    4    9 ar   
     9    5   12 1    
    10    5    6 ar   
    11    6    7 ar   
    12    6   13 1    
    13    7    8 ar   
    14    8    9 ar   
    15    8   14 1    
    16    9   15 1    
    17   10   11 1    
    18   11   19 1    
    19   11   18 1    
    20   11   20 1    
    21   21   36 1    
    22   21   27 1    
    23   22   30 2    
    24   23   24 1    
    25   23   37 1    
    26   23   30 am   BACKBONE|DICT|INTERRES
    27   24   25 ar   
    28   24   29 ar   
    29   25   26 ar   
    30   25   32 1    
    31   26   33 1    
    32   26   27 ar   
    33   27   28 ar   
    34   28   34 1    
    35   28   29 ar   
    36   29   35 1    
    37   30   31 1    
    38   31   39 1    
    39   31   38 1    
    40   31   40 1    
    41   41   56 1    
    42   41   47 1    
    43   42   50 2    
    44   43   44 1    
    45   43   57 1    
    46   43   50 am   BACKBONE|DICT|INTERRES
    47   44   49 ar   
    48   44   45 ar   
    49   45   46 ar   
    50   45   52 1    
    51   46   47 ar   
    52   46   53 1    
    53   47   48 ar   
    54   48   49 ar   
    55   48   54 1    
    56   49   55 1    
    57   50   51 1    
    58   51   58 1    
    59   51   60 1    
    60   51   59 1    
    61   61   67 1    
    62   61   76 1    
    63   62   70 2    
    64   63   70 am   BACKBONE|DICT|INTERRES
    65   63   64 1    
    66   63   77 1    
    67   64   69 ar   
    68   64   65 ar   
    69   65   72 1    
    70   65   66 ar   
    71   66   73 1    
    72   66   67 ar   
    73   67   68 ar   
    74   68   74 1    
    75   68   69 ar   
    76   69   75 1    
    77   70   71 1    
    78   71   78 1    
    79   71   80 1    
    80   71   79 1    
    81   81   96 1    
    82   81   87 1    
    83   82   90 2    
    84   83   97 1    
    85   83   90 am   BACKBONE|DICT|INTERRES
    86   83   84 1    
    87   84   85 ar   
    88   84   89 ar   
    89   85   92 1    
    90   85   86 ar   
    91   86   87 ar   
    92   86   93 1    
    93   87   88 ar   
    94   88   89 ar   
    95   88   94 1    
    96   89   95 1    
    97   90   91 1    
    98   91   99 1    
    99   91   98 1    
   100   91  100 1    
   101  101  116 1    
   102  101  107 1    
   103  102  110 2    
   104  103  104 1    
   105  103  117 1    
   106  103  110 am   BACKBONE|DICT|INTERRES
   107  104  105 ar   
   108  104  109 ar   
   109  105  106 ar   
   110  105  112 1    
   111  106  113 1    
   112  106  107 ar   
   113  107  108 ar   
   114  108  114 1    
   115  108  109 ar   
   116  109  115 1    
   117  110  111 1    
   118  111  119 1    
   119  111  118 1    
   120  111  120 1    
   121  121  136 1    
   122  121  127 1    
   123  122  130 2    
   124  123  124 1    
   125  123  137 1    
   126  123  130 am   BACKBONE|DICT|INTERRES
   127  124  129 ar   
   128  124  125 ar   
   129  125  126 ar   
   130  125  132 1    
   131  126  127 ar   
   132  126  133 1    
   133  127  128 ar   
   134  128  129 ar   
   135  128  134 1    
   136  129  135 1    
   137  130  131 1    
   138  131  138 1    
   139  131  140 1    
   140  131  139 1    
   141  141  147 1    
   142  141  156 1    
   143  142  150 2    
   144  143  150 am   BACKBONE|DICT|INTERRES
   145  143  144 1    
   146  143  157 1    
   147  144  149 ar   
   148  144  145 ar   
   149  145  152 1    
   150  145  146 ar   
   151  146  153 1    
   152  146  147 ar   
   153  147  148 ar   
   154  148  154 1    
   155  148  149 ar   
   156  149  155 1    
   157  150  151 1    
   158  151  158 1    
   159  151  160 1    
   160  151  159 1    
   161  161  176 1    
   162  161  167 1    
   163  162  170 2    
   164  163  177 1    
   165  163  170 am   BACKBONE|DICT|INTERRES
   166  163  164 1    
   167  164  165 ar   
   168  164  169 ar   
   169  165  172 1    
   170  165  166 ar   
   171  166  167 ar   
   172  166  173 1    
   173  167  168 ar   
   174  168  169 ar   
   175  168  174 1    
   176  169  175 1    
   177  170  171 1    
   178  171  179 1    
   179  171  178 1    
   180  171  180 1    
   181  181  196 1    
   182  181  187 1    
   183  182  190 2    
   184  183  184 1    
   185  183  197 1    
   186  183  190 am   BACKBONE|DICT|INTERRES
   187  184  185 ar   
   188  184  189 ar   
   189  185  186 ar   
   190  185  192 1    
   191  186  193 1    
   192  186  187 ar   
   193  187  188 ar   
   194  188  194 1    
   195  188  189 ar   
   196  189  195 1    
   197  190  191 1    
   198  191  199 1    
   199  191  198 1    
   200  191  200 1    
   201  201  216 1    
   202  201  207 1    
   203  202  210 2    
   204  203  204 1    
   205  203  217 1    
   206  203  210 am   BACKBONE|DICT|INTERRES
   207  204  209 ar   
   208  204  205 ar   
   209  205  206 ar   
   210  205  212 1    
   211  206  207 ar   
   212  206  213 1    
   213  207  208 ar   
   214  208  209 ar   
   215  208  214 1    
   216  209  215 1    
   217  210  211 1    
   218  211  218 1    
   219  211  220 1    
   220  211  219 1    
   221  221  227 1    
   222  221  236 1    
   223  222  230 2    
   224  223  230 am   BACKBONE|DICT|INTERRES
   225  223  224 1    
   226  223  237 1    
   227  224  229 ar   
   228  224  225 ar   
   229  225  232 1    
   230  225  226 ar   
   231  226  233 1    
   232  226  227 ar   
   233  227  228 ar   
   234  228  234 1    
   235  228  229 ar   
   236  229  235 1    
   237  230  231 1    
   238  231  238 1    
   239  231  240 1    
   240  231  239 1    
   241  241  256 1    
   242  241  247 1    
   243  242  250 2    
   244  243  257 1    
   245  243  250 am   BACKBONE|DICT|INTERRES
   246  243  244 1    
   247  244  245 ar   
   248  244  249 ar   
   249  245  252 1    
   250  245  246 ar   
   251  246  247 ar   
   252  246  253 1    
   253  247  248 ar   
   254  248  249 ar   
   255  248  254 1    
   256  249  255 1    
   257  250  251 1    
   258  251  259 1    
   259  251  258 1    
   260  251  260 1    
   261  261  276 1    
   262  261  267 1    
   263  262  270 2    
   264  263  264 1    
   265  263  277 1    
   266  263  270 am   BACKBONE|DICT|INTERRES
   267  264  265 ar   
   268  264  269 ar   
   269  265  266 ar   
   270  265  272 1    
   271  266  273 1    
   272  266  267 ar   
   273  267  268 ar   
   274  268  274 1    
   275  268  269 ar   
   276  269  275 1    
   277  270  271 1    
   278  271  279 1    
   279  271  278 1    
   280  271  280 1    
   281  281  296 1    
   282  281  287 1    
   283  282  290 2    
   284  283  284 1    
   285  283  297 1    
   286  283  290 am   BACKBONE|DICT|INTERRES
   287  284  289 ar   
   288  284  285 ar   
   289  285  286 ar   
   290  285  292 1    
   291  286  287 ar   
   292  286  293 1    
   293  287  288 ar   
   294  288  289 ar   
   295  288  294 1    
   296  289  295 1    
   297  290  291 1    
   298  291  298 1    
   299  291  300 1    
   300  291  299 1    
   301  301  307 1    
   302  301  316 1    
   303  302  310 2    
   304  303  310 am   BACKBONE|DICT|INTERRES
   305  303  304 1    
   306  303  317 1    
   307  304  309 ar   
   308  304  305 ar   
   309  305  312 1    
   310  305  306 ar   
   311  306  313 1    
   312  306  307 ar   
   313  307  308 ar   
   314  308  314 1    
   315  308  309 ar   
   316  309  315 1    
   317  310  311 1    
   318  311  318 1    
   319  311  320 1    
   320  311  319 1    
   321  321  336 1    
   322  321  327 1    
   323  322  330 2    
   324  323  337 1    
   325  323  330 am   BACKBONE|DICT|INTERRES
   326  323  324 1    
   327  324  325 ar   
   328  324  329 ar   
   329  325  332 1    
   330  325  326 ar   
   331  326  327 ar   
   332  326  333 1    
   333  327  328 ar   
   334  328  329 ar   
   335  328  334 1    
   336  329  335 1    
   337  330  331 1    
   338  331  339 1    
   339  331  338 1    
   340  331  340 1    
   341  341  356 1    
   342  341  347 1    
   343  342  350 2    
   344  343  344 1    
   345  343  357 1    
   346  343  350 am   BACKBONE|DICT|INTERRES
   347  344  345 ar   
   348  344  349 ar   
   349  345  346 ar   
   350  345  352 1    
   351  346  353 1    
   352  346  347 ar   
   353  347  348 ar   
   354  348  354 1    
   355  348  349 ar   
   356  349  355 1    
   357  350  351 1    
   358  351  359 1    
   359  351  358 1    
   360  351  360 1    
   361  361  376 1    
   362  361  367 1    
   363  362  370 2    
   364  363  364 1    
   365  363  377 1    
   366  363  370 am   BACKBONE|DICT|INTERRES
   367  364  369 ar   
   368  364  365 ar   
   369  365  366 ar   
   370  365  372 1    
   371  366  367 ar   
   372  366  373 1    
   373  367  368 ar   
   374  368  369 ar   
   375  368  374 1    
   376  369  375 1    
   377  370  371 1    
   378  371  378 1    
   379  371  380 1    
   380  371  379 1    
   381  381  387 1    
   382  381  396 1    
   383  382  390 2    
   384  383  390 am   BACKBONE|DICT|INTERRES
   385  383  384 1    
   386  383  397 1    
   387  384  389 ar   
   388  384  385 ar   
   389  385  392 1    
   390  385  386 ar   
   391  386  393 1    
   392  386  387 ar   
   393  387  388 ar   
   394  388  394 1    
   395  388  389 ar   
   396  389  395 1    
   397  390  391 1    
   398  391  398 1    
   399  391  400 1    
   400  391  399 1    
   401  401  416 1    
   402  401  407 1    
   403  402  410 2    
   404  403  417 1    
   405  403  410 am   BACKBONE|DICT|INTERRES
   406  403  404 1    
   407  404  405 ar   
   408  404  409 ar   
   409  405  412 1    
   410  405  406 ar   
   411  406  407 ar   
   412  406  413 1    
   413  407  408 ar   
   414  408  409 ar   
   415  408  414 1    
   416  409  415 1    
   417  410  411 1    
   418  411  419 1    
   419  411  418 1    
   420  411  420 1    
   421  421  436 1    
   422  421  427 1    
   423  422  430 2    
   424  423  424 1    
   425  423  437 1    
   426  423  430 am   BACKBONE|DICT|INTERRES
   427  424  425 ar   
   428  424  429 ar   
   429  425  426 ar   
   430  425  432 1    
   431  426  433 1    
   432  426  427 ar   
   433  427  428 ar   
   434  428  434 1    
   435  428  429 ar   
   436  429  435 1    
   437  430  431 1    
   438  431  439 1    
   439  431  438 1    
   440  431  440 1    
   441  441  456 1    
   442  441  447 1    
   443  442  450 2    
   444  443  444 1    
   445  443  457 1    
   446  443  450 am   BACKBONE|DICT|INTERRES
   447  444  449 ar   
   448  444  445 ar   
   449  445  446 ar   
   450  445  452 1    
   451  446  447 ar   
   452  446  453 1    
   453  447  448 ar   
   454  448  449 ar   
   455  448  454 1    
   456  449  455 1    
   457  450  451 1    
   458  451  458 1    
   459  451  460 1    
   460  451  459 1    
   461  461  467 1    
   462  461  476 1    
   463  462  470 2    
   464  463  470 am   BACKBONE|DICT|INTERRES
   465  463  464 1    
   466  463  477 1    
   467  464  469 ar   
   468  464  465 ar   
   469  465  472 1    
   470  465  466 ar   
   471  466  473 1    
   472  466  467 ar   
   473  467  468 ar   
   474  468  474 1    
   475  468  469 ar   
   476  469  475 1    
   477  470  471 1    
   478  471  478 1    
   479  471  480 1    
   480  471  479 1    
   481  481  496 1    
   482  481  487 1    
   483  482  490 2    
   484  483  497 1    
   485  483  490 am   BACKBONE|DICT|INTERRES
   486  483  484 1    
   487  484  485 ar   
   488  484  489 ar   
   489  485  492 1    
   490  485  486 ar   
   491  486  487 ar   
   492  486  493 1    
   493  487  488 ar   
   494  488  489 ar   
   495  488  494 1    
   496  489  495 1    
   497  490  491 1    
   498  491  499 1    
   499  491  498 1    
   500  491  500 1    
   501  501  516 1    
   502  501  507 1    
   503  502  510 2    
   504  503  504 1    
   505  503  517 1    
   506  503  510 am   BACKBONE|DICT|INTERRES
   507  504  505 ar   
   508  504  509 ar   
   509  505  506 ar   
   510  505  512 1    
   511  506  513 1    
   512  506  507 ar   
   513  507  508 ar   
   514  508  514 1    
   515  508  509 ar   
   516  509  515 1    
   517  510  511 1    
   518  511  519 1    
   519  511  518 1    
   520  511  520 1    
   521  521  536 1    
   522  521  527 1    
   523  522  530 2    
   524  523  524 1    
   525  523  537 1    
   526  523  530 am   BACKBONE|DICT|INTERRES
   527  524  529 ar   
   528  524  525 ar   
   529  525  526 ar   
   530  525  532 1    
   531  526  527 ar   
   532  526  533 1    
   533  527  528 ar   
   534  528  529 ar   
   535  528  534 1    
   536  529  535 1    
   537  530  531 1    
   538  531  538 1    
   539  531  540 1    
   540  531  539 1    
   541  541  547 1    
   542  541  556 1    
   543  542  550 2    
   544  543  550 am   BACKBONE|DICT|INTERRES
   545  543  544 1    
   546  543  557 1    
   547  544  549 ar   
   548  544  545 ar   
   549  545  552 1    
   550  545  546 ar   
   551  546  553 1    
   552  546  547 ar   
   553  547  548 ar   
   554  548  554 1    
   555  548  549 ar   
   556  549  555 1    
   557  550  551 1    
   558  551  558 1    
   559  551  560 1    
   560  551  559 1    
   561  561  576 1    
   562  561  567 1    
   563  562  570 2    
   564  563  577 1    
   565  563  570 am   BACKBONE|DICT|INTERRES
   566  563  564 1    
   567  564  565 ar   
   568  564  569 ar   
   569  565  572 1    
   570  565  566 ar   
   571  566  567 ar   
   572  566  573 1    
   573  567  568 ar   
   574  568  569 ar   
   575  568  574 1    
   576  569  575 1    
   577  570  571 1    
   578  571  579 1    
   579  571  578 1    
   580  571  580 1    
   581  581  596 1    
   582  581  587 1    
   583  582  590 2    
   584  583  584 1    
   585  583  597 1    
   586  583  590 am   BACKBONE|DICT|INTERRES
   587  584  585 ar   
   588  584  589 ar   
   589  585  586 ar   
   590  585  592 1    
   591  586  593 1    
   592  586  587 ar   
   593  587  588 ar   
   594  588  594 1    
   595  588  589 ar   
   596  589  595 1    
   597  590  591 1    
   598  591  599 1    
   599  591  598 1    
   600  591  600 1    
   601  601  616 1    
   602  601  607 1    
   603  602  610 2    
   604  603  604 1    
   605  603  617 1    
   606  603  610 am   BACKBONE|DICT|INTERRES
   607  604  609 ar   
   608  604  605 ar   
   609  605  606 ar   
   610  605  612 1    
   611  606  607 ar   
   612  606  613 1    
   613  607  608 ar   
   614  608  609 ar   
   615  608  614 1    
   616  609  615 1    
   617  610  611 1    
   618  611  618 1    
   619  611  620 1    
   620  611  619 1    
   621  621  627 1    
   622  621  636 1    
   623  622  630 2    
   624  623  630 am   BACKBONE|DICT|INTERRES
   625  623  624 1    
   626  623  637 1    
   627  624  629 ar   
   628  624  625 ar   
   629  625  632 1    
   630  625  626 ar   
   631  626  633 1    
   632  626  627 ar   
   633  627  628 ar   
   634  628  634 1    
   635  628  629 ar   
   636  629  635 1    
   637  630  631 1    
   638  631  638 1    
   639  631  640 1    
   640  631  639 1    
   641  641  656 1    
   642  641  647 1    
   643  642  650 2    
   644  643  657 1    
   645  643  650 am   BACKBONE|DICT|INTERRES
   646  643  644 1    
   647  644  645 ar   
   648  644  649 ar   
   649  645  652 1    
   650  645  646 ar   
   651  646  647 ar   
   652  646  653 1    
   653  647  648 ar   
   654  648  649 ar   
   655  648  654 1    
   656  649  655 1    
   657  650  651 1    
   658  651  659 1    
   659  651  658 1    
   660  651  660 1    
   661  661  676 1    
   662  661  667 1    
   663  662  670 2    
   664  663  664 1    
   665  663  677 1    
   666  663  670 am   BACKBONE|DICT|INTERRES
   667  664  665 ar   
   668  664  669 ar   
   669  665  666 ar   
   670  665  672 1    
   671  666  673 1    
   672  666  667 ar   
   673  667  668 ar   
   674  668  674 1    
   675  668  669 ar   
   676  669  675 1    
   677  670  671 1    
   678  671  679 1    
   679  671  678 1    
   680  671  680 1    
   681  681  696 1    
   682  681  687 1    
   683  682  690 2    
   684  683  684 1    
   685  683  697 1    
   686  683  690 am   BACKBONE|DICT|INTERRES
   687  684  689 ar   
   688  684  685 ar   
   689  685  686 ar   
   690  685  692 1    
   691  686  687 ar   
   692  686  693 1    
   693  687  688 ar   
   694  688  689 ar   
   695  688  694 1    
   696  689  695 1    
   697  690  691 1    
   698  691  698 1    
   699  691  700 1    
   700  691  699 1    
   701  701  707 1    
   702  701  716 1    
   703  702  710 2    
   704  703  710 am   BACKBONE|DICT|INTERRES
   705  703  704 1    
   706  703  717 1    
   707  704  709 ar   
   708  704  705 ar   
   709  705  712 1    
   710  705  706 ar   
   711  706  713 1    
   712  706  707 ar   
   713  707  708 ar   
   714  708  714 1    
   715  708  709 ar   
   716  709  715 1    
   717  710  711 1    
   718  711  718 1    
   719  711  720 1    
   720  711  719 1    
   721  721  736 1    
   722  721  727 1    
   723  722  730 2    
   724  723  737 1    
   725  723  730 am   BACKBONE|DICT|INTERRES
   726  723  724 1    
   727  724  725 ar   
   728  724  729 ar   
   729  725  732 1    
   730  725  726 ar   
   731  726  727 ar   
   732  726  733 1    
   733  727  728 ar   
   734  728  729 ar   
   735  728  734 1    
   736  729  735 1    
   737  730  731 1    
   738  731  739 1    
   739  731  738 1    
   740  731  740 1    
   741  741  756 1    
   742  741  747 1    
   743  742  750 2    
   744  743  744 1    
   745  743  757 1    
   746  743  750 am   BACKBONE|DICT|INTERRES
   747  744  745 ar   
   748  744  749 ar   
   749  745  746 ar   
   750  745  752 1    
   751  746  753 1    
   752  746  747 ar   
   753  747  748 ar   
   754  748  754 1    
   755  748  749 ar   
   756  749  755 1    
   757  750  751 1    
   758  751  759 1    
   759  751  758 1    
   760  751  760 1    
   761  761  776 1    
   762  761  767 1    
   763  762  770 2    
   764  763  764 1    
   765  763  777 1    
   766  763  770 am   BACKBONE|DICT|INTERRES
   767  764  769 ar   
   768  764  765 ar   
   769  765  766 ar   
   770  765  772 1    
   771  766  767 ar   
   772  766  773 1    
   773  767  768 ar   
   774  768  769 ar   
   775  768  774 1    
   776  769  775 1    
   777  770  771 1    
   778  771  778 1    
   779  771  780 1    
   780  771  779 1    
   781  781  787 1    
   782  781  796 1    
   783  782  790 2    
   784  783  790 am   BACKBONE|DICT|INTERRES
   785  783  784 1    
   786  783  797 1    
   787  784  789 ar   
   788  784  785 ar   
   789  785  792 1    
   790  785  786 ar   
   791  786  793 1    
   792  786  787 ar   
   793  787  788 ar   
   794  788  794 1    
   795  788  789 ar   
   796  789  795 1    
   797  790  791 1    
   798  791  798 1    
   799  791  800 1    
   800  791  799 1    
   801  801  816 1    
   802  801  807 1    
   803  802  810 2    
   804  803  817 1    
   805  803  810 am   BACKBONE|DICT|INTERRES
   806  803  804 1    
   807  804  805 ar   
   808  804  809 ar   
   809  805  812 1    
   810  805  806 ar   
   811  806  807 ar   
   812  806  813 1    
   813  807  808 ar   
   814  808  809 ar   
   815  808  814 1    
   816  809  815 1    
   817  810  811 1    
   818  811  819 1    
   819  811  818 1    
   820  811  820 1    
   821  821  836 1    
   822  821  827 1    
   823  822  830 2    
   824  823  824 1    
   825  823  837 1    
   826  823  830 am   BACKBONE|DICT|INTERRES
   827  824  825 ar   
   828  824  829 ar   
   829  825  826 ar   
   830  825  832 1    
   831  826  833 1    
   832  826  827 ar   
   833  827  828 ar   
   834  828  834 1    
   835  828  829 ar   
   836  829  835 1    
   837  830  831 1    
   838  831  839 1    
   839  831  838 1    
   840  831  840 1    
   841  841  856 1    
   842  841  847 1    
   843  842  850 2    
   844  843  844 1    
   845  843  857 1    
   846  843  850 am   BACKBONE|DICT|INTERRES
   847  844  849 ar   
   848  844  845 ar   
   849  845  846 ar   
   850  845  852 1    
   851  846  847 ar   
   852  846  853 1    
   853  847  848 ar   
   854  848  849 ar   
   855  848  854 1    
   856  849  855 1    
   857  850  851 1    
   858  851  858 1    
   859  851  860 1    
   860  851  859 1    
   861  861  867 1    
   862  861  876 1    
   863  862  870 2    
   864  863  870 am   BACKBONE|DICT|INTERRES
   865  863  864 1    
   866  863  877 1    
   867  864  869 ar   
   868  864  865 ar   
   869  865  872 1    
   870  865  866 ar   
   871  866  873 1    
   872  866  867 ar   
   873  867  868 ar   
   874  868  874 1    
   875  868  869 ar   
   876  869  875 1    
   877  870  871 1    
   878  871  878 1    
   879  871  880 1    
   880  871  879 1    
   881  881  896 1    
   882  881  887 1    
   883  882  890 2    
   884  883  897 1    
   885  883  890 am   BACKBONE|DICT|INTERRES
   886  883  884 1    
   887  884  885 ar   
   888  884  889 ar   
   889  885  892 1    
   890  885  886 ar   
   891  886  887 ar   
   892  886  893 1    
   893  887  888 ar   
   894  888  889 ar   
   895  888  894 1    
   896  889  895 1    
   897  890  891 1    
   898  891  899 1    
   899  891  898 1    
   900  891  900 1    
   901  901  916 1    
   902  901  907 1    
   903  902  910 2    
   904  903  904 1    
   905  903  917 1    
   906  903  910 am   BACKBONE|DICT|INTERRES
   907  904  905 ar   
   908  904  909 ar   
   909  905  906 ar   
   910  905  912 1    
   911  906  913 1    
   912  906  907 ar   
   913  907  908 ar   
   914  908  914 1    
   915  908  909 ar   
   916  909  915 1    
   917  910  911 1    
   918  911  919 1    
   919  911  918 1    
   920  911  920 1    
   921  921  936 1    
   922  921  927 1    
   923  922  930 2    
   924  923  924 1    
   925  923  937 1    
   926  923  930 am   BACKBONE|DICT|INTERRES
   927  924  929 ar   
   928  924  925 ar   
   929  925  926 ar   
   930  925  932 1    
   931  926  927 ar   
   932  926  933 1    
   933  927  928 ar   
   934  928  929 ar   
   935  928  934 1    
   936  929  935 1    
   937  930  931 1    
   938  931  938 1    
   939  931  940 1    
   940  931  939 1    
   941  941  947 1    
   942  941  956 1    
   943  942  950 2    
   944  943  950 am   BACKBONE|DICT|INTERRES
   945  943  944 1    
   946  943  957 1    
   947  944  949 ar   
   948  944  945 ar   
   949  945  952 1    
   950  945  946 ar   
   951  946  953 1    
   952  946  947 ar   
   953  947  948 ar   
   954  948  954 1    
   955  948  949 ar   
   956  949  955 1    
   957  950  951 1    
   958  951  958 1    
   959  951  960 1    
   960  951  959 1    
   961  961  976 1    
   962  961  967 1    
   963  962  970 2    
   964  963  977 1    
   965  963  970 am   BACKBONE|DICT|INTERRES
   966  963  964 1    
   967  964  965 ar   
   968  964  969 ar   
   969  965  972 1    
   970  965  966 ar   
   971  966  967 ar   
   972  966  973 1    
   973  967  968 ar   
   974  968  969 ar   
   975  968  974 1    
   976  969  975 1    
   977  970  971 1    
   978  971  979 1    
   979  971  978 1    
   980  971  980 1    
   981  981  996 1    
   982  981  987 1    
   983  982  990 2    
   984  983  984 1    
   985  983  997 1    
   986  983  990 am   BACKBONE|DICT|INTERRES
   987  984  985 ar   
   988  984  989 ar   
   989  985  986 ar   
   990  985  992 1    
   991  986  993 1    
   992  986  987 ar   
   993  987  988 ar   
   994  988  994 1    
   995  988  989 ar   
   996  989  995 1    
   997  990  991 1    
   998  991  999 1    
   999  991  998 1    
  1000  991 1000 1    
  1001 1001 1016 1    
  1002 1001 1007 1    
  1003 1002 1010 2    
  1004 1003 1004 1    
  1005 1003 1017 1    
  1006 1003 1010 am   BACKBONE|DICT|INTERRES
  1007 1004 1009 ar   
  1008 1004 1005 ar   
  1009 1005 1006 ar   
  1010 1005 1012 1    
  1011 1006 1007 ar   
  1012 1006 1013 1    
  1013 1007 1008 ar   
  1014 1008 1009 ar   
  1015 1008 1014 1    
  1016 1009 1015 1    
  1017 1010 1011 1    
  1018 1011 1018 1    
  1019 1011 1020 1    
  1020 1011 1019 1    
  1021 1021 1027 1    
  1022 1021 1036 1    
  1023 1022 1030 2    
  1024 1023 1030 am   BACKBONE|DICT|INTERRES
  1025 1023 1024 1    
  1026 1023 1037 1    
  1027 1024 1029 ar   
  1028 1024 1025 ar   
  1029 1025 1032 1    
  1030 1025 1026 ar   
  1031 1026 1033 1    
  1032 1026 1027 ar   
  1033 1027 1028 ar   
  1034 1028 1034 1    
  1035 1028 1029 ar   
  1036 1029 1035 1    
  1037 1030 1031 1    
  1038 1031 1038 1    
  1039 1031 1040 1    
  1040 1031 1039 1    
  1041 1041 1056 1    
  1042 1041 1047 1    
  1043 1042 1050 2    
  1044 1043 1057 1    
  1045 1043 1050 am   BACKBONE|DICT|INTERRES
  1046 1043 1044 1    
  1047 1044 1045 ar   
  1048 1044 1049 ar   
  1049 1045 1052 1    
  1050 1045 1046 ar   
  1051 1046 1047 ar   
  1052 1046 1053 1    
  1053 1047 1048 ar   
  1054 1048 1049 ar   
  1055 1048 1054 1    
  1056 1049 1055 1    
  1057 1050 1051 1    
  1058 1051 1059 1    
  1059 1051 1058 1    
  1060 1051 1060 1    
  1061 1061 1076 1    
  1062 1061 1067 1    
  1063 1062 1070 2    
  1064 1063 1064 1    
  1065 1063 1077 1    
  1066 1063 1070 am   BACKBONE|DICT|INTERRES
  1067 1064 1065 ar   
  1068 1064 1069 ar   
  1069 1065 1066 ar   
  1070 1065 1072 1    
  1071 1066 1073 1    
  1072 1066 1067 ar   
  1073 1067 1068 ar   
  1074 1068 1074 1    
  1075 1068 1069 ar   
  1076 1069 1075 1    
  1077 1070 1071 1    
  1078 1071 1079 1    
  1079 1071 1078 1    
  1080 1071 1080 1    
  1081 1081 1096 1    
  1082 1081 1087 1    
  1083 1082 1090 2    
  1084 1083 1084 1    
  1085 1083 1097 1    
  1086 1083 1090 am   BACKBONE|DICT|INTERRES
  1087 1084 1089 ar   
  1088 1084 1085 ar   
  1089 1085 1086 ar   
  1090 1085 1092 1    
  1091 1086 1087 ar   
  1092 1086 1093 1    
  1093 1087 1088 ar   
  1094 1088 1089 ar   
  1095 1088 1094 1    
  1096 1089 1095 1    
  1097 1090 1091 1    
  1098 1091 1098 1    
  1099 1091 1100 1    
  1100 1091 1099 1    
  1101 1101 1107 1    
  1102 1101 1116 1    
  1103 1102 1110 2    
  1104 1103 1110 am   BACKBONE|DICT|INTERRES
  1105 1103 1104 1    
  1106 1103 1117 1    
  1107 1104 1109 ar   
  1108 1104 1105 ar   
  1109 1105 1112 1    
  1110 1105 1106 ar   
  1111 1106 1113 1    
  1112 1106 1107 ar   
  1113 1107 1108 ar   
  1114 1108 1114 1    
  1115 1108 1109 ar   
  1116 1109 1115 1    
  1117 1110 1111 1    
  1118 1111 1118 1    
  1119 1111 1120 1    
  1120 1111 1119 1    
  1121 1121 1136 1    
  1122 1121 1127 1    
  1123 1122 1130 2    
  1124 1123 1137 1    
  1125 1123 1130 am   BACKBONE|DICT|INTERRES
  1126 1123 1124 1    
  1127 1124 1125 ar   
  1128 1124 1129 ar   
  1129 1125 1132 1    
  1130 1125 1126 ar   
  1131 1126 1127 ar   
  1132 1126 1133 1    
  1133 1127 1128 ar   
  1134 1128 1129 ar   
  1135 1128 1134 1    
  1136 1129 1135 1    
  1137 1130 1131 1    
  1138 1131 1139 1    
  1139 1131 1138 1    
  1140 1131 1140 1    
  1141 1141 1156 1    
  1142 1141 1147 1    
  1143 1142 1150 2    
  1144 1143 1144 1    
  1145 1143 1157 1    
  1146 1143 1150 am   BACKBONE|DICT|INTERRES
  1147 1144 1145 ar   
  1148 1144 1149 ar   
  1149 1145 1146 ar   
  1150 1145 1152 1    
  1151 1146 1153 1    
  1152 1146 1147 ar   
  1153 1147 1148 ar   
  1154 1148 1154 1    
  1155 1148 1149 ar   
  1156 1149 1155 1    
  1157 1150 1151 1    
  1158 1151 1159 1    
  1159 1151 1158 1    
  1160 1151 1160 1    
  1161 1161 1176 1    
  1162 1161 1167 1    
  1163 1162 1170 2    
  1164 1163 1164 1    
  1165 1163 1177 1    
  1166 1163 1170 am   BACKBONE|DICT|INTERRES
  1167 1164 1169 ar   
  1168 1164 1165 ar   
  1169 1165 1166 ar   
  1170 1165 1172 1    
  1171 1166 1167 ar   
  1172 1166 1173 1    
  1173 1167 1168 ar   
  1174 1168 1169 ar   
  1175 1168 1174 1    
  1176 1169 1175 1    
  1177 1170 1171 1    
  1178 1171 1178 1    
  1179 1171 1180 1    
  1180 1171 1179 1    
  1181 1181 1187 1    
  1182 1181 1196 1    
  1183 1182 1190 2    
  1184 1183 1190 am   BACKBONE|DICT|INTERRES
  1185 1183 1184 1    
  1186 1183 1197 1    
  1187 1184 1189 ar   
  1188 1184 1185 ar   
  1189 1185 1192 1    
  1190 1185 1186 ar   
  1191 1186 1193 1    
  1192 1186 1187 ar   
  1193 1187 1188 ar   
  1194 1188 1194 1    
  1195 1188 1189 ar   
  1196 1189 1195 1    
  1197 1190 1191 1    
  1198 1191 1198 1    
  1199 1191 1200 1    
  1200 1191 1199 1    
  1201 1201 1216 1    
  1202 1201 1207 1    
  1203 1202 1210 2    
  1204 1203 1217 1    
  1205 1203 1210 am   BACKBONE|DICT|INTERRES
  1206 1203 1204 1    
  1207 1204 1205 ar   
  1208 1204 1209 ar   
  1209 1205 1212 1    
  1210 1205 1206 ar   
  1211 1206 1207 ar   
  1212 1206 1213 1    
  1213 1207 1208 ar   
  1214 1208 1209 ar   
  1215 1208 1214 1    
  1216 1209 1215 1    
  1217 1210 1211 1    
  1218 1211 1219 1    
  1219 1211 1218 1    
  1220 1211 1220 1    
  1221 1221 1236 1    
  1222 1221 1227 1    
  1223 1222 1230 2    
  1224 1223 1224 1    
  1225 1223 1237 1    
  1226 1223 1230 am   BACKBONE|DICT|INTERRES
  1227 1224 1225 ar   
  1228 1224 1229 ar   
  1229 1225 1226 ar   
  1230 1225 1232 1    
  1231 1226 1233 1    
  1232 1226 1227 ar   
  1233 1227 1228 ar   
  1234 1228 1234 1    
  1235 1228 1229 ar   
  1236 1229 1235 1    
  1237 1230 1231 1    
  1238 1231 1239 1    
  1239 1231 1238 1    
  1240 1231 1240 1    
  1241 1241 1256 1    
  1242 1241 1247 1    
  1243 1242 1250 2    
  1244 1243 1244 1    
  1245 1243 1257 1    
  1246 1243 1250 am   BACKBONE|DICT|INTERRES
  1247 1244 1249 ar   
  1248 1244 1245 ar   
  1249 1245 1246 ar   
  1250 1245 1252 1    
  1251 1246 1247 ar   
  1252 1246 1253 1    
  1253 1247 1248 ar   
  1254 1248 1249 ar   
  1255 1248 1254 1    
  1256 1249 1255 1    
  1257 1250 1251 1    
  1258 1251 1258 1    
  1259 1251 1260 1    
  1260 1251 1259 1    
  1261 1261 1267 1    
  1262 1261 1276 1    
  1263 1262 1270 2    
  1264 1263 1270 am   BACKBONE|DICT|INTERRES
  1265 1263 1264 1    
  1266 1263 1277 1    
  1267 1264 1269 ar   
  1268 1264 1265 ar   
  1269 1265 1272 1    
  1270 1265 1266 ar   
  1271 1266 1273 1    
  1272 1266 1267 ar   
  1273 1267 1268 ar   
  1274 1268 1274 1    
  1275 1268 1269 ar   
  1276 1269 1275 1    
  1277 1270 1271 1    
  1278 1271 1278 1    
  1279 1271 1280 1    
  1280 1271 1279 1    
  1281 1281 1296 1    
  1282 1281 1287 1    
  1283 1282 1290 2    
  1284 1283 1297 1    
  1285 1283 1290 am   BACKBONE|DICT|INTERRES
  1286 1283 1284 1    
  1287 1284 1285 ar   
  1288 1284 1289 ar   
  1289 1285 1292 1    
  1290 1285 1286 ar   
  1291 1286 1287 ar   
  1292 1286 1293 1    
  1293 1287 1288 ar   
  1294 1288 1289 ar   
  1295 1288 1294 1    
  1296 1289 1295 1    
  1297 1290 1291 1    
  1298 1291 1299 1    
  1299 1291 1298 1    
  1300 1291 1300 1    
  1301 1301 1316 1    
  1302 1301 1307 1    
  1303 1302 1310 2    
  1304 1303 1304 1    
  1305 1303 1317 1    
  1306 1303 1310 am   BACKBONE|DICT|INTERRES
  1307 1304 1305 ar   
  1308 1304 1309 ar   
  1309 1305 1306 ar   
  1310 1305 1312 1    
  1311 1306 1313 1    
  1312 1306 1307 ar   
  1313 1307 1308 ar   
  1314 1308 1314 1    
  1315 1308 1309 ar   
  1316 1309 1315 1    
  1317 1310 1311 1    
  1318 1311 1319 1    
  1319 1311 1318 1    
  1320 1311 1320 1    
  1321 1321 1336 1    
  1322 1321 1327 1    
  1323 1322 1330 2    
  1324 1323 1324 1    
  1325 1323 1337 1    
  1326 1323 1330 am   BACKBONE|DICT|INTERRES
  1327 1324 1329 ar   
  1328 1324 1325 ar   
  1329 1325 1326 ar   
  1330 1325 1332 1    
  1331 1326 1327 ar   
  1332 1326 1333 1    
  1333 1327 1328 ar   
  1334 1328 1329 ar   
  1335 1328 1334 1    
  1336 1329 1335 1    
  1337 1330 1331 1    
  1338 1331 1338 1    
  1339 1331 1340 1    
  1340 1331 1339 1    
  1341 1341 1347 1    
  1342 1341 1356 1    
  1343 1342 1350 2    
  1344 1343 1350 am   BACKBONE|DICT|INTERRES
  1345 1343 1344 1    
  1346 1343 1357 1    
  1347 1344 1349 ar   
  1348 1344 1345 ar   
  1349 1345 1352 1    
  1350 1345 1346 ar   
  1351 1346 1353 1    
  1352 1346 1347 ar   
  1353 1347 1348 ar   
  1354 1348 1354 1    
  1355 1348 1349 ar   
  1356 1349 1355 1    
  1357 1350 1351 1    
  1358 1351 1358 1    
  1359 1351 1360 1    
  1360 1351 1359 1    
  1361 1361 1376 1    
  1362 1361 1367 1    
  1363 1362 1370 2    
  1364 1363 1377 1    
  1365 1363 1370 am   BACKBONE|DICT|INTERRES
  1366 1363 1364 1    
  1367 1364 1365 ar   
  1368 1364 1369 ar   
  1369 1365 1372 1    
  1370 1365 1366 ar   
  1371 1366 1367 ar   
  1372 1366 1373 1    
  1373 1367 1368 ar   
  1374 1368 1369 ar   
  1375 1368 1374 1    
  1376 1369 1375 1    
  1377 1370 1371 1    
  1378 1371 1379 1    
  1379 1371 1378 1    
  1380 1371 1380 1    
  1381 1381 1396 1    
  1382 1381 1387 1    
  1383 1382 1390 2    
  1384 1383 1384 1    
  1385 1383 1397 1    
  1386 1383 1390 am   BACKBONE|DICT|INTERRES
  1387 1384 1385 ar   
  1388 1384 1389 ar   
  1389 1385 1386 ar   
  1390 1385 1392 1    
  1391 1386 1393 1    
  1392 1386 1387 ar   
  1393 1387 1388 ar   
  1394 1388 1394 1    
  1395 1388 1389 ar   
  1396 1389 1395 1    
  1397 1390 1391 1    
  1398 1391 1399 1    
  1399 1391 1398 1    
  1400 1391 1400 1    
  1401 1401 1416 1    
  1402 1401 1407 1    
  1403 1402 1410 2    
  1404 1403 1404 1    
  1405 1403 1417 1    
  1406 1403 1410 am   BACKBONE|DICT|INTERRES
  1407 1404 1409 ar   
  1408 1404 1405 ar   
  1409 1405 1406 ar   
  1410 1405 1412 1    
  1411 1406 1407 ar   
  1412 1406 1413 1    
  1413 1407 1408 ar   
  1414 1408 1409 ar   
  1415 1408 1414 1    
  1416 1409 1415 1    
  1417 1410 1411 1    
  1418 1411 1418 1    
  1419 1411 1420 1    
  1420 1411 1419 1    
  1421 1421 1427 1    
  1422 1421 1436 1    
  1423 1422 1430 2    
  1424 1423 1430 am   BACKBONE|DICT|INTERRES
  1425 1423 1424 1    
  1426 1423 1437 1    
  1427 1424 1429 ar   
  1428 1424 1425 ar   
  1429 1425 1432 1    
  1430 1425 1426 ar   
  1431 1426 1433 1    
  1432 1426 1427 ar   
  1433 1427 1428 ar   
  1434 1428 1434 1    
  1435 1428 1429 ar   
  1436 1429 1435 1    
  1437 1430 1431 1    
  1438 1431 1438 1    
  1439 1431 1440 1    
  1440 1431 1439 1    
  1441 1441 1456 1    
  1442 1441 1447 1    
  1443 1442 1450 2    
  1444 1443 1457 1    
  1445 1443 1450 am   BACKBONE|DICT|INTERRES
  1446 1443 1444 1    
  1447 1444 1445 ar   
  1448 1444 1449 ar   
  1449 1445 1452 1    
  1450 1445 1446 ar   
  1451 1446 1447 ar   
  1452 1446 1453 1    
  1453 1447 1448 ar   
  1454 1448 1449 ar   
  1455 1448 1454 1    
  1456 1449 1455 1    
  1457 1450 1451 1    
  1458 1451 1459 1    
  1459 1451 1458 1    
  1460 1451 1460 1    
  1461 1461 1476 1    
  1462 1461 1467 1    
  1463 1462 1470 2    
  1464 1463 1464 1    
  1465 1463 1477 1    
  1466 1463 1470 am   BACKBONE|DICT|INTERRES
  1467 1464 1465 ar   
  1468 1464 1469 ar   
  1469 1465 1466 ar   
  1470 1465 1472 1    
  1471 1466 1473 1    
  1472 1466 1467 ar   
  1473 1467 1468 ar   
  1474 1468 1474 1    
  1475 1468 1469 ar   
  1476 1469 1475 1    
  1477 1470 1471 1    
  1478 1471 1479 1    
  1479 1471 1478 1    
  1480 1471 1480 1    
  1481 1481 1496 1    
  1482 1481 1487 1    
  1483 1482 1490 2    
  1484 1483 1484 1    
  1485 1483 1497 1    
  1486 1483 1490 am   BACKBONE|DICT|INTERRES
  1487 1484 1489 ar   
  1488 1484 1485 ar   
  1489 1485 1486 ar   
  1490 1485 1492 1    
  1491 1486 1487 ar   
  1492 1486 1493 1    
  1493 1487 1488 ar   
  1494 1488 1489 ar   
  1495 1488 1494 1    
  1496 1489 1495 1    
  1497 1490 1491 1    
  1498 1491 1498 1    
  1499 1491 1500 1    
  1500 1491 1499 1    
  1501 1501 1507 1    
  1502 1501 1516 1    
  1503 1502 1510 2    
  1504 1503 1510 am   BACKBONE|DICT|INTERRES
  1505 1503 1504 1    
  1506 1503 1517 1    
  1507 1504 1509 ar   
  1508 1504 1505 ar   
  1509 1505 1512 1    
  1510 1505 1506 ar   
  1511 1506 1513 1    
  1512 1506 1507 ar   
  1513 1507 1508 ar   
  1514 1508 1514 1    
  1515 1508 1509 ar   
  1516 1509 1515 1    
  1517 1510 1511 1    
  1518 1511 1518 1    
  1519 1511 1520 1    
  1520 1511 1519 1    
  1521 1521 1536 1    
  1522 1521 1527 1    
  1523 1522 1530 2    
  1524 1523 1537 1    
  1525 1523 1530 am   BACKBONE|DICT|INTERRES
  1526 1523 1524 1    
  1527 1524 1525 ar   
  1528 1524 1529 ar   
  1529 1525 1532 1    
  1530 1525 1526 ar   
  1531 1526 1527 ar   
  1532 1526 1533 1    
  1533 1527 1528 ar   
  1534 1528 1529 ar   
  1535 1528 1534 1    
  1536 1529 1535 1    
  1537 1530 1531 1    
  1538 1531 1539 1    
  1539 1531 1538 1    
  1540 1531 1540 1    
  1541 1541 1556 1    
  1542 1541 1547 1    
  1543 1542 1550 2    
  1544 1543 1544 1    
  1545 1543 1557 1    
  1546 1543 1550 am   BACKBONE|DICT|INTERRES
  1547 1544 1545 ar   
  1548 1544 1549 ar   
  1549 1545 1546 ar   
  1550 1545 1552 1    
  1551 1546 1553 1    
  1552 1546 1547 ar   
  1553 1547 1548 ar   
  1554 1548 1554 1    
  1555 1548 1549 ar   
  1556 1549 1555 1    
  1557 1550 1551 1    
  1558 1551 1559 1    
  1559 1551 1558 1    
  1560 1551 1560 1    
  1561 1561 1576 1    
  1562 1561 1567 1    
  1563 1562 1570 2    
  1564 1563 1564 1    
  1565 1563 1577 1    
  1566 1563 1570 am   BACKBONE|DICT|INTERRES
  1567 1564 1569 ar   
  1568 1564 1565 ar   
  1569 1565 1566 ar   
  1570 1565 1572 1    
  1571 1566 1567 ar   
  1572 1566 1573 1    
  1573 1567 1568 ar   
  1574 1568 1569 ar   
  1575 1568 1574 1    
  1576 1569 1575 1    
  1577 1570 1571 1    
  1578 1571 1578 1    
  1579 1571 1580 1    
  1580 1571 1579 1    
  1581 1581 1587 1    
  1582 1581 1596 1    
  1583 1582 1590 2    
  1584 1583 1590 am   BACKBONE|DICT|INTERRES
  1585 1583 1584 1    
  1586 1583 1597 1    
  1587 1584 1589 ar   
  1588 1584 1585 ar   
  1589 1585 1592 1    
  1590 1585 1586 ar   
  1591 1586 1593 1    
  1592 1586 1587 ar   
  1593 1587 1588 ar   
  1594 1588 1594 1    
  1595 1588 1589 ar   
  1596 1589 1595 1    
  1597 1590 1591 1    
  1598 1591 1598 1    
  1599 1591 1600 1    
  1600 1591 1599 1    
  1601 1601 1616 1    
  1602 1601 1607 1    
  1603 1602 1610 2    
  1604 1603 1617 1    
  1605 1603 1610 am   BACKBONE|DICT|INTERRES
  1606 1603 1604 1    
  1607 1604 1605 ar   
  1608 1604 1609 ar   
  1609 1605 1612 1    
  1610 1605 1606 ar   
  1611 1606 1607 ar   
  1612 1606 1613 1    
  1613 1607 1608 ar   
  1614 1608 1609 ar   
  1615 1608 1614 1    
  1616 1609 1615 1    
  1617 1610 1611 1    
  1618 1611 1619 1    
  1619 1611 1618 1    
  1620 1611 1620 1    
  1621 1621 1636 1    
  1622 1621 1627 1    
  1623 1622 1630 2    
  1624 1623 1624 1    
  1625 1623 1637 1    
  1626 1623 1630 am   BACKBONE|DICT|INTERRES
  1627 1624 1625 ar   
  1628 1624 1629 ar   
  1629 1625 1626 ar   
  1630 1625 1632 1    
  1631 1626 1633 1    
  1632 1626 1627 ar   
  1633 1627 1628 ar   
  1634 1628 1634 1    
  1635 1628 1629 ar   
  1636 1629 1635 1    
  1637 1630 1631 1    
  1638 1631 1639 1    
  1639 1631 1638 1    
  1640 1631 1640 1    
  1641 1641 1656 1    
  1642 1641 1647 1    
  1643 1642 1650 2    
  1644 1643 1644 1    
  1645 1643 1657 1    
  1646 1643 1650 am   BACKBONE|DICT|INTERRES
  1647 1644 1649 ar   
  1648 1644 1645 ar   
  1649 1645 1646 ar   
  1650 1645 1652 1    
  1651 1646 1647 ar   
  1652 1646 1653 1    
  1653 1647 1648 ar   
  1654 1648 1649 ar   
  1655 1648 1654 1    
  1656 1649 1655 1    
  1657 1650 1651 1    
  1658 1651 1658 1    
  1659 1651 1660 1    
  1660 1651 1659 1    
  1661 1661 1667 1    
  1662 1661 1676 1    
  1663 1662 1670 2    
  1664 1663 1670 am   BACKBONE|DICT|INTERRES
  1665 1663 1664 1    
  1666 1663 1677 1    
  1667 1664 1669 ar   
  1668 1664 1665 ar   
  1669 1665 1672 1    
  1670 1665 1666 ar   
  1671 1666 1673 1    
  1672 1666 1667 ar   
  1673 1667 1668 ar   
  1674 1668 1674 1    
  1675 1668 1669 ar   
  1676 1669 1675 1    
  1677 1670 1671 1    
  1678 1671 1678 1    
  1679 1671 1680 1    
  1680 1671 1679 1    
  1681 1681 1696 1    
  1682 1681 1687 1    
  1683 1682 1690 2    
  1684 1683 1697 1    
  1685 1683 1690 am   BACKBONE|DICT|INTERRES
  1686 1683 1684 1    
  1687 1684 1685 ar   
  1688 1684 1689 ar   
  1689 1685 1692 1    
  1690 1685 1686 ar   
  1691 1686 1687 ar   
  1692 1686 1693 1    
  1693 1687 1688 ar   
  1694 1688 1689 ar   
  1695 1688 1694 1    
  1696 1689 1695 1    
  1697 1690 1691 1    
  1698 1691 1699 1    
  1699 1691 1698 1    
  1700 1691 1700 1    
  1701 1701 1716 1    
  1702 1701 1707 1    
  1703 1702 1710 2    
  1704 1703 1704 1    
  1705 1703 1717 1    
  1706 1703 1710 am   BACKBONE|DICT|INTERRES
  1707 1704 1705 ar   
  1708 1704 1709 ar   
  1709 1705 1706 ar   
  1710 1705 1712 1    
  1711 1706 1713 1    
  1712 1706 1707 ar   
  1713 1707 1708 ar   
  1714 1708 1714 1    
  1715 1708 1709 ar   
  1716 1709 1715 1    
  1717 1710 1711 1    
  1718 1711 1719 1    
  1719 1711 1718 1    
  1720 1711 1720 1    
  1721 1721 1736 1    
  1722 1721 1727 1    
  1723 1722 1730 2    
  1724 1723 1724 1    
  1725 1723 1737 1    
  1726 1723 1730 am   BACKBONE|DICT|INTERRES
  1727 1724 1729 ar   
  1728 1724 1725 ar   
  1729 1725 1726 ar   
  1730 1725 1732 1    
  1731 1726 1727 ar   
  1732 1726 1733 1    
  1733 1727 1728 ar   
  1734 1728 1729 ar   
  1735 1728 1734 1    
  1736 1729 1735 1    
  1737 1730 1731 1    
  1738 1731 1738 1    
  1739 1731 1740 1    
  1740 1731 1739 1    
  1741 1741 1747 1    
  1742 1741 1756 1    
  1743 1742 1750 2    
  1744 1743 1750 am   BACKBONE|DICT|INTERRES
  1745 1743 1744 1    
  1746 1743 1757 1    
  1747 1744 1749 ar   
  1748 1744 1745 ar   
  1749 1745 1752 1    
  1750 1745 1746 ar   
  1751 1746 1753 1    
  1752 1746 1747 ar   
  1753 1747 1748 ar   
  1754 1748 1754 1    
  1755 1748 1749 ar   
  1756 1749 1755 1    
  1757 1750 1751 1    
  1758 1751 1758 1    
  1759 1751 1760 1    
  1760 1751 1759 1    
  1761 1761 1776 1    
  1762 1761 1767 1    
  1763 1762 1770 2    
  1764 1763 1777 1    
  1765 1763 1770 am   BACKBONE|DICT|INTERRES
  1766 1763 1764 1    
  1767 1764 1765 ar   
  1768 1764 1769 ar   
  1769 1765 1772 1    
  1770 1765 1766 ar   
  1771 1766 1767 ar   
  1772 1766 1773 1    
  1773 1767 1768 ar   
  1774 1768 1769 ar   
  1775 1768 1774 1    
  1776 1769 1775 1    
  1777 1770 1771 1    
  1778 1771 1779 1    
  1779 1771 1778 1    
  1780 1771 1780 1    
  1781 1781 1796 1    
  1782 1781 1787 1    
  1783 1782 1790 2    
  1784 1783 1784 1    
  1785 1783 1797 1    
  1786 1783 1790 am   BACKBONE|DICT|INTERRES
  1787 1784 1785 ar   
  1788 1784 1789 ar   
  1789 1785 1786 ar   
  1790 1785 1792 1    
  1791 1786 1793 1    
  1792 1786 1787 ar   
  1793 1787 1788 ar   
  1794 1788 1794 1    
  1795 1788 1789 ar   
  1796 1789 1795 1    
  1797 1790 1791 1    
  1798 1791 1799 1    
  1799 1791 1798 1    
  1800 1791 1800 1    
  1801 1801 1816 1    
  1802 1801 1807 1    
  1803 1802 1810 2    
  1804 1803 1804 1    
  1805 1803 1817 1    
  1806 1803 1810 am   BACKBONE|DICT|INTERRES
  1807 1804 1809 ar   
  1808 1804 1805 ar   
  1809 1805 1806 ar   
  1810 1805 1812 1    
  1811 1806 1807 ar   
  1812 1806 1813 1    
  1813 1807 1808 ar   
  1814 1808 1809 ar   
  1815 1808 1814 1    
  1816 1809 1815 1    
  1817 1810 1811 1    
  1818 1811 1818 1    
  1819 1811 1820 1    
  1820 1811 1819 1    
  1821 1821 1827 1    
  1822 1821 1836 1    
  1823 1822 1830 2    
  1824 1823 1830 am   BACKBONE|DICT|INTERRES
  1825 1823 1824 1    
  1826 1823 1837 1    
  1827 1824 1829 ar   
  1828 1824 1825 ar   
  1829 1825 1832 1    
  1830 1825 1826 ar   
  1831 1826 1833 1    
  1832 1826 1827 ar   
  1833 1827 1828 ar   
  1834 1828 1834 1    
  1835 1828 1829 ar   
  1836 1829 1835 1    
  1837 1830 1831 1    
  1838 1831 1838 1    
  1839 1831 1840 1    
  1840 1831 1839 1    
  1841 1841 1856 1    
  1842 1841 1847 1    
  1843 1842 1850 2    
  1844 1843 1857 1    
  1845 1843 1850 am   BACKBONE|DICT|INTERRES
  1846 1843 1844 1    
  1847 1844 1845 ar   
  1848 1844 1849 ar   
  1849 1845 1852 1    
  1850 1845 1846 ar   
  1851 1846 1847 ar   
  1852 1846 1853 1    
  1853 1847 1848 ar   
  1854 1848 1849 ar   
  1855 1848 1854 1    
  1856 1849 1855 1    
  1857 1850 1851 1    
  1858 1851 1859 1    
  1859 1851 1858 1    
  1860 1851 1860 1    
  1861 1861 1876 1    
  1862 1861 1867 1    
  1863 1862 1870 2    
  1864 1863 1864 1    
  1865 1863 1877 1    
  1866 1863 1870 am   BACKBONE|DICT|INTERRES
  1867 1864 1865 ar   
  1868 1864 1869 ar   
  1869 1865 1866 ar   
  1870 1865 1872 1    
  1871 1866 1873 1    
  1872 1866 1867 ar   
  1873 1867 1868 ar   
  1874 1868 1874 1    
  1875 1868 1869 ar   
  1876 1869 1875 1    
  1877 1870 1871 1    
  1878 1871 1879 1    
  1879 1871 1878 1    
  1880 1871 1880 1    
  1881 1881 1896 1    
  1882 1881 1887 1    
  1883 1882 1890 2    
  1884 1883 1884 1    
  1885 1883 1897 1    
  1886 1883 1890 am   BACKBONE|DICT|INTERRES
  1887 1884 1889 ar   
  1888 1884 1885 ar   
  1889 1885 1886 ar   
  1890 1885 1892 1    
  1891 1886 1887 ar   
  1892 1886 1893 1    
  1893 1887 1888 ar   
  1894 1888 1889 ar   
  1895 1888 1894 1    
  1896 1889 1895 1    
  1897 1890 1891 1    
  1898 1891 1898 1    
  1899 1891 1900 1    
  1900 1891 1899 1    
  1901 1901 1907 1    
  1902 1901 1916 1    
  1903 1902 1910 2    
  1904 1903 1910 am   BACKBONE|DICT|INTERRES
  1905 1903 1904 1    
  1906 1903 1917 1    
  1907 1904 1909 ar   
  1908 1904 1905 ar   
  1909 1905 1912 1    
  1910 1905 1906 ar   
  1911 1906 1913 1    
  1912 1906 1907 ar   
  1913 1907 1908 ar   
  1914 1908 1914 1    
  1915 1908 1909 ar   
  1916 1909 1915 1    
  1917 1910 1911 1    
  1918 1911 1918 1    
  1919 1911 1920 1    
  1920 1911 1919 1    
  1921 1921 1936 1    
  1922 1921 1927 1    
  1923 1922 1930 2    
  1924 1923 1937 1    
  1925 1923 1930 am   BACKBONE|DICT|INTERRES
  1926 1923 1924 1    
  1927 1924 1925 ar   
  1928 1924 1929 ar   
  1929 1925 1932 1    
  1930 1925 1926 ar   
  1931 1926 1927 ar   
  1932 1926 1933 1    
  1933 1927 1928 ar   
  1934 1928 1929 ar   
  1935 1928 1934 1    
  1936 1929 1935 1    
  1937 1930 1931 1    
  1938 1931 1939 1    
  1939 1931 1938 1    
  1940 1931 1940 1    
  1941 1941 1956 1    
  1942 1941 1947 1    
  1943 1942 1950 2    
  1944 1943 1944 1    
  1945 1943 1957 1    
  1946 1943 1950 am   BACKBONE|DICT|INTERRES
  1947 1944 1945 ar   
  1948 1944 1949 ar   
  1949 1945 1946 ar   
  1950 1945 1952 1    
  1951 1946 1953 1    
  1952 1946 1947 ar   
  1953 1947 1948 ar   
  1954 1948 1954 1    
  1955 1948 1949 ar   
  1956 1949 1955 1    
  1957 1950 1951 1    
  1958 1951 1959 1    
  1959 1951 1958 1    
  1960 1951 1960 1    
  1961 1961 1976 1    
  1962 1961 1967 1    
  1963 1962 1970 2    
  1964 1963 1964 1    
  1965 1963 1977 1    
  1966 1963 1970 am   BACKBONE|DICT|INTERRES
  1967 1964 1969 ar   
  1968 1964 1965 ar   
  1969 1965 1966 ar   
  1970 1965 1972 1    
  1971 1966 1967 ar   
  1972 1966 1973 1    
  1973 1967 1968 ar   
  1974 1968 1969 ar   
  1975 1968 1974 1    
  1976 1969 1975 1    
  1977 1970 1971 1    
  1978 1971 1978 1    
  1979 1971 1980 1    
  1980 1971 1979 1    
  1981 1981 1987 1    
  1982 1981 1996 1    
  1983 1982 1990 2    
  1984 1983 1990 am   BACKBONE|DICT|INTERRES
  1985 1983 1984 1    
  1986 1983 1997 1    
  1987 1984 1989 ar   
  1988 1984 1985 ar   
  1989 1985 1992 1    
  1990 1985 1986 ar   
  1991 1986 1993 1    
  1992 1986 1987 ar   
  1993 1987 1988 ar   
  1994 1988 1994 1    
  1995 1988 1989 ar   
  1996 1989 1995 1    
  1997 1990 1991 1    
  1998 1991 1998 1    
  1999 1991 2000 1    
  2000 1991 1999 1    
  2001 2001 2016 1    
  2002 2001 2007 1    
  2003 2002 2010 2    
  2004 2003 2017 1    
  2005 2003 2010 am   BACKBONE|DICT|INTERRES
  2006 2003 2004 1    
  2007 2004 2005 ar   
  2008 2004 2009 ar   
  2009 2005 2012 1    
  2010 2005 2006 ar   
  2011 2006 2007 ar   
  2012 2006 2013 1    
  2013 2007 2008 ar   
  2014 2008 2009 ar   
  2015 2008 2014 1    
  2016 2009 2015 1    
  2017 2010 2011 1    
  2018 2011 2019 1    
  2019 2011 2018 1    
  2020 2011 2020 1    
  2021 2021 2036 1    
  2022 2021 2027 1    
  2023 2022 2030 2    
  2024 2023 2024 1    
  2025 2023 2037 1    
  2026 2023 2030 am   BACKBONE|DICT|INTERRES
  2027 2024 2025 ar   
  2028 2024 2029 ar   
  2029 2025 2026 ar   
  2030 2025 2032 1    
  2031 2026 2033 1    
  2032 2026 2027 ar   
  2033 2027 2028 ar   
  2034 2028 2034 1    
  2035 2028 2029 ar   
  2036 2029 2035 1    
  2037 2030 2031 1    
  2038 2031 2039 1    
  2039 2031 2038 1    
  2040 2031 2040 1    
  2041 2041 2056 1    
  2042 2041 2047 1    
  2043 2042 2050 2    
  2044 2043 2044 1    
  2045 2043 2057 1    
  2046 2043 2050 am   BACKBONE|DICT|INTERRES
  2047 2044 2049 ar   
  2048 2044 2045 ar   
  2049 2045 2046 ar   
  2050 2045 2052 1    
  2051 2046 2047 ar   
  2052 2046 2053 1    
  2053 2047 2048 ar   
  2054 2048 2049 ar   
  2055 2048 2054 1    
  2056 2049 2055 1    
  2057 2050 2051 1    
  2058 2051 2058 1    
  2059 2051 2060 1    
  2060 2051 2059 1    
  2061 2061 2067 1    
  2062 2061 2076 1    
  2063 2062 2070 2    
  2064 2063 2070 am   BACKBONE|DICT|INTERRES
  2065 2063 2064 1    
  2066 2063 2077 1    
  2067 2064 2069 ar   
  2068 2064 2065 ar   
  2069 2065 2072 1    
  2070 2065 2066 ar   
  2071 2066 2073 1    
  2072 2066 2067 ar   
  2073 2067 2068 ar   
  2074 2068 2074 1    
  2075 2068 2069 ar   
  2076 2069 2075 1    
  2077 2070 2071 1    
  2078 2071 2078 1    
  2079 2071 2080 1    
  2080 2071 2079 1    
  2081 2081 2096 1    
  2082 2081 2087 1    
  2083 2082 2090 2    
  2084 2083 2097 1    
  2085 2083 2090 am   BACKBONE|DICT|INTERRES
  2086 2083 2084 1    
  2087 2084 2085 ar   
  2088 2084 2089 ar   
  2089 2085 2092 1    
  2090 2085 2086 ar   
  2091 2086 2087 ar   
  2092 2086 2093 1    
  2093 2087 2088 ar   
  2094 2088 2089 ar   
  2095 2088 2094 1    
  2096 2089 2095 1    
  2097 2090 2091 1    
  2098 2091 2099 1    
  2099 2091 2098 1    
  2100 2091 2100 1    
  2101 2101 2116 1    
  2102 2101 2107 1    
  2103 2102 2110 2    
  2104 2103 2104 1    
  2105 2103 2117 1    
  2106 2103 2110 am   BACKBONE|DICT|INTERRES
  2107 2104 2105 ar   
  2108 2104 2109 ar   
  2109 2105 2106 ar   
  2110 2105 2112 1    
  2111 2106 2113 1    
  2112 2106 2107 ar   
  2113 2107 2108 ar   
  2114 2108 2114 1    
  2115 2108 2109 ar   
  2116 2109 2115 1    
  2117 2110 2111 1    
  2118 2111 2119 1    
  2119 2111 2118 1    
  2120 2111 2120 1    
  2121 2121 2136 1    
  2122 2121 2127 1    
  2123 2122 2130 2    
  2124 2123 2124 1    
  2125 2123 2137 1    
  2126 2123 2130 am   BACKBONE|DICT|INTERRES
  2127 2124 2129 ar   
  2128 2124 2125 ar   
  2129 2125 2126 ar   
  2130 2125 2132 1    
  2131 2126 2127 ar   
  2132 2126 2133 1    
  2133 2127 2128 ar   
  2134 2128 2129 ar   
  2135 2128 2134 1    
  2136 2129 2135 1    
  2137 2130 2131 1    
  2138 2131 2138 1    
  2139 2131 2140 1    
  2140 2131 2139 1    
  2141 2141 2147 1    
  2142 2141 2156 1    
  2143 2142 2150 2    
  2144 2143 2150 am   BACKBONE|DICT|INTERRES
  2145 2143 2144 1    
  2146 2143 2157 1    
  2147 2144 2149 ar   
  2148 2144 2145 ar   
  2149 2145 2152 1    
  2150 2145 2146 ar   
  2151 2146 2153 1    
  2152 2146 2147 ar   
  2153 2147 2148 ar   
  2154 2148 2154 1    
  2155 2148 2149 ar   
  2156 2149 2155 1    
  2157 2150 2151 1    
  2158 2151 2158 1    
  2159 2151 2160 1    
  2160 2151 2159 1    
  2161 2161 2176 1    
  2162 2161 2167 1    
  2163 2162 2170 2    
  2164 2163 2177 1    
  2165 2163 2170 am   BACKBONE|DICT|INTERRES
  2166 2163 2164 1    
  2167 2164 2165 ar   
  2168 2164 2169 ar   
  2169 2165 2172 1    
  2170 2165 2166 ar   
  2171 2166 2167 ar   
  2172 2166 2173 1    
  2173 2167 2168 ar   
  2174 2168 2169 ar   
  2175 2168 2174 1    
  2176 2169 2175 1    
  2177 2170 2171 1    
  2178 2171 2179 1    
  2179 2171 2178 1    
  2180 2171 2180 1    
  2181 2181 2196 1    
  2182 2181 2187 1    
  2183 2182 2190 2    
  2184 2183 2184 1    
  2185 2183 2197 1    
  2186 2183 2190 am   BACKBONE|DICT|INTERRES
  2187 2184 2185 ar   
  2188 2184 2189 ar   
  2189 2185 2186 ar   
  2190 2185 2192 1    
  2191 2186 2193 1    
  2192 2186 2187 ar   
  2193 2187 2188 ar   
  2194 2188 2194 1    
  2195 2188 2189 ar   
  2196 2189 2195 1    
  2197 2190 2191 1    
  2198 2191 2199 1    
  2199 2191 2198 1    
  2200 2191 2200 1    
  2201 2201 2216 1    
  2202 2201 2207 1    
  2203 2202 2210 2    
  2204 2203 2204 1    
  2205 2203 2217 1    
  2206 2203 2210 am   BACKBONE|DICT|INTERRES
  2207 2204 2209 ar   
  2208 2204 2205 ar   
  2209 2205 2206 ar   
  2210 2205 2212 1    
  2211 2206 2207 ar   
  2212 2206 2213 1    
  2213 2207 2208 ar   
  2214 2208 2209 ar   
  2215 2208 2214 1    
  2216 2209 2215 1    
  2217 2210 2211 1    
  2218 2211 2218 1    
  2219 2211 2220 1    
  2220 2211 2219 1    
  2221 2221 2227 1    
  2222 2221 2236 1    
  2223 2222 2230 2    
  2224 2223 2230 am   BACKBONE|DICT|INTERRES
  2225 2223 2224 1    
  2226 2223 2237 1    
  2227 2224 2229 ar   
  2228 2224 2225 ar   
  2229 2225 2232 1    
  2230 2225 2226 ar   
  2231 2226 2233 1    
  2232 2226 2227 ar   
  2233 2227 2228 ar   
  2234 2228 2234 1    
  2235 2228 2229 ar   
  2236 2229 2235 1    
  2237 2230 2231 1    
  2238 2231 2238 1    
  2239 2231 2240 1    
  2240 2231 2239 1    
  2241 2241 2256 1    
  2242 2241 2247 1    
  2243 2242 2250 2    
  2244 2243 2257 1    
  2245 2243 2250 am   BACKBONE|DICT|INTERRES
  2246 2243 2244 1    
  2247 2244 2245 ar   
  2248 2244 2249 ar   
  2249 2245 2252 1    
  2250 2245 2246 ar   
  2251 2246 2247 ar   
  2252 2246 2253 1    
  2253 2247 2248 ar   
  2254 2248 2249 ar   
  2255 2248 2254 1    
  2256 2249 2255 1    
  2257 2250 2251 1    
  2258 2251 2259 1    
  2259 2251 2258 1    
  2260 2251 2260 1    
  2261 2261 2276 1    
  2262 2261 2267 1    
  2263 2262 2270 2    
  2264 2263 2264 1    
  2265 2263 2277 1    
  2266 2263 2270 am   BACKBONE|DICT|INTERRES
  2267 2264 2265 ar   
  2268 2264 2269 ar   
  2269 2265 2266 ar   
  2270 2265 2272 1    
  2271 2266 2273 1    
  2272 2266 2267 ar   
  2273 2267 2268 ar   
  2274 2268 2274 1    
  2275 2268 2269 ar   
  2276 2269 2275 1    
  2277 2270 2271 1    
  2278 2271 2279 1    
  2279 2271 2278 1    
  2280 2271 2280 1    
  2281 2281 2296 1    
  2282 2281 2287 1    
  2283 2282 2290 2    
  2284 2283 2284 1    
  2285 2283 2297 1    
  2286 2283 2290 am   BACKBONE|DICT|INTERRES
  2287 2284 2289 ar   
  2288 2284 2285 ar   
  2289 2285 2286 ar   
  2290 2285 2292 1    
  2291 2286 2287 ar   
  2292 2286 2293 1    
  2293 2287 2288 ar   
  2294 2288 2289 ar   
  2295 2288 2294 1    
  2296 2289 2295 1    
  2297 2290 2291 1    
  2298 2291 2298 1    
  2299 2291 2300 1    
  2300 2291 2299 1    
  2301 2301 2307 1    
  2302 2301 2316 1    
  2303 2302 2310 2    
  2304 2303 2310 am   BACKBONE|DICT|INTERRES
  2305 2303 2304 1    
  2306 2303 2317 1    
  2307 2304 2309 ar   
  2308 2304 2305 ar   
  2309 2305 2312 1    
  2310 2305 2306 ar   
  2311 2306 2313 1    
  2312 2306 2307 ar   
  2313 2307 2308 ar   
  2314 2308 2314 1    
  2315 2308 2309 ar   
  2316 2309 2315 1    
  2317 2310 2311 1    
  2318 2311 2318 1    
  2319 2311 2320 1    
  2320 2311 2319 1    
  2321 2321 2336 1    
  2322 2321 2327 1    
  2323 2322 2330 2    
  2324 2323 2337 1    
  2325 2323 2330 am   BACKBONE|DICT|INTERRES
  2326 2323 2324 1    
  2327 2324 2325 ar   
  2328 2324 2329 ar   
  2329 2325 2332 1    
  2330 2325 2326 ar   
  2331 2326 2327 ar   
  2332 2326 2333 1    
  2333 2327 2328 ar   
  2334 2328 2329 ar   
  2335 2328 2334 1    
  2336 2329 2335 1    
  2337 2330 2331 1    
  2338 2331 2339 1    
  2339 2331 2338 1    
  2340 2331 2340 1    
  2341 2341 2356 1    
  2342 2341 2347 1    
  2343 2342 2350 2    
  2344 2343 2344 1    
  2345 2343 2357 1    
  2346 2343 2350 am   BACKBONE|DICT|INTERRES
  2347 2344 2345 ar   
  2348 2344 2349 ar   
  2349 2345 2346 ar   
  2350 2345 2352 1    
  2351 2346 2353 1    
  2352 2346 2347 ar   
  2353 2347 2348 ar   
  2354 2348 2354 1    
  2355 2348 2349 ar   
  2356 2349 2355 1    
  2357 2350 2351 1    
  2358 2351 2359 1    
  2359 2351 2358 1    
  2360 2351 2360 1    
  2361 2361 2376 1    
  2362 2361 2367 1    
  2363 2362 2370 2    
  2364 2363 2364 1    
  2365 2363 2377 1    
  2366 2363 2370 am   BACKBONE|DICT|INTERRES
  2367 2364 2369 ar   
  2368 2364 2365 ar   
  2369 2365 2366 ar   
  2370 2365 2372 1    
  2371 2366 2367 ar   
  2372 2366 2373 1    
  2373 2367 2368 ar   
  2374 2368 2369 ar   
  2375 2368 2374 1    
  2376 2369 2375 1    
  2377 2370 2371 1    
  2378 2371 2378 1    
  2379 2371 2380 1    
  2380 2371 2379 1    
  2381 2381 2387 1    
  2382 2381 2396 1    
  2383 2382 2390 2    
  2384 2383 2390 am   BACKBONE|DICT|INTERRES
  2385 2383 2384 1    
  2386 2383 2397 1    
  2387 2384 2389 ar   
  2388 2384 2385 ar   
  2389 2385 2392 1    
  2390 2385 2386 ar   
  2391 2386 2393 1    
  2392 2386 2387 ar   
  2393 2387 2388 ar   
  2394 2388 2394 1    
  2395 2388 2389 ar   
  2396 2389 2395 1    
  2397 2390 2391 1    
  2398 2391 2398 1    
  2399 2391 2400 1    
  2400 2391 2399 1    
  2401 2401 2416 1    
  2402 2401 2407 1    
  2403 2402 2410 2    
  2404 2403 2417 1    
  2405 2403 2410 am   BACKBONE|DICT|INTERRES
  2406 2403 2404 1    
  2407 2404 2405 ar   
  2408 2404 2409 ar   
  2409 2405 2412 1    
  2410 2405 2406 ar   
  2411 2406 2407 ar   
  2412 2406 2413 1    
  2413 2407 2408 ar   
  2414 2408 2409 ar   
  2415 2408 2414 1    
  2416 2409 2415 1    
  2417 2410 2411 1    
  2418 2411 2419 1    
  2419 2411 2418 1    
  2420 2411 2420 1    
  2421 2421 2436 1    
  2422 2421 2427 1    
  2423 2422 2430 2    
  2424 2423 2424 1    
  2425 2423 2437 1    
  2426 2423 2430 am   BACKBONE|DICT|INTERRES
  2427 2424 2425 ar   
  2428 2424 2429 ar   
  2429 2425 2426 ar   
  2430 2425 2432 1    
  2431 2426 2433 1    
  2432 2426 2427 ar   
  2433 2427 2428 ar   
  2434 2428 2434 1    
  2435 2428 2429 ar   
  2436 2429 2435 1    
  2437 2430 2431 1    
  2438 2431 2439 1    
  2439 2431 2438 1    
  2440 2431 2440 1    
  2441 2441 2456 1    
  2442 2441 2447 1    
  2443 2442 2450 2    
  2444 2443 2444 1    
  2445 2443 2457 1    
  2446 2443 2450 am   BACKBONE|DICT|INTERRES
  2447 2444 2449 ar   
  2448 2444 2445 ar   
  2449 2445 2446 ar   
  2450 2445 2452 1    
  2451 2446 2447 ar   
  2452 2446 2453 1    
  2453 2447 2448 ar   
  2454 2448 2449 ar   
  2455 2448 2454 1    
  2456 2449 2455 1    
  2457 2450 2451 1    
  2458 2451 2458 1    
  2459 2451 2460 1    
  2460 2451 2459 1    
  2461 2461 2467 1    
  2462 2461 2476 1    
  2463 2462 2470 2    
  2464 2463 2470 am   BACKBONE|DICT|INTERRES
  2465 2463 2464 1    
  2466 2463 2477 1    
  2467 2464 2469 ar   
  2468 2464 2465 ar   
  2469 2465 2472 1    
  2470 2465 2466 ar   
  2471 2466 2473 1    
  2472 2466 2467 ar   
  2473 2467 2468 ar   
  2474 2468 2474 1    
  2475 2468 2469 ar   
  2476 2469 2475 1    
  2477 2470 2471 1    
  2478 2471 2478 1    
  2479 2471 2480 1    
  2480 2471 2479 1    
  2481 2481 2496 1    
  2482 2481 2487 1    
  2483 2482 2490 2    
  2484 2483 2497 1    
  2485 2483 2490 am   BACKBONE|DICT|INTERRES
  2486 2483 2484 1    
  2487 2484 2485 ar   
  2488 2484 2489 ar   
  2489 2485 2492 1    
  2490 2485 2486 ar   
  2491 2486 2487 ar   
  2492 2486 2493 1    
  2493 2487 2488 ar   
  2494 2488 2489 ar   
  2495 2488 2494 1    
  2496 2489 2495 1    
  2497 2490 2491 1    
  2498 2491 2499 1    
  2499 2491 2498 1    
  2500 2491 2500 1    
  2501 2501 2516 1    
  2502 2501 2507 1    
  2503 2502 2510 2    
  2504 2503 2504 1    
  2505 2503 2517 1    
  2506 2503 2510 am   BACKBONE|DICT|INTERRES
  2507 2504 2505 ar   
  2508 2504 2509 ar   
  2509 2505 2506 ar   
  2510 2505 2512 1    
  2511 2506 2513 1    
  2512 2506 2507 ar   
  2513 2507 2508 ar   
  2514 2508 2514 1    
  2515 2508 2509 ar   
  2516 2509 2515 1    
  2517 2510 2511 1    
  2518 2511 2519 1    
  2519 2511 2518 1    
  2520 2511 2520 1    
  2521 2521 2536 1    
  2522 2521 2527 1    
  2523 2522 2530 2    
  2524 2523 2524 1    
  2525 2523 2537 1    
  2526 2523 2530 am   BACKBONE|DICT|INTERRES
  2527 2524 2529 ar   
  2528 2524 2525 ar   
  2529 2525 2526 ar   
  2530 2525 2532 1    
  2531 2526 2527 ar   
  2532 2526 2533 1    
  2533 2527 2528 ar   
  2534 2528 2529 ar   
  2535 2528 2534 1    
  2536 2529 2535 1    
  2537 2530 2531 1    
  2538 2531 2538 1    
  2539 2531 2540 1    
  2540 2531 2539 1    
  2541 2541 2547 1    
  2542 2541 2556 1    
  2543 2542 2550 2    
  2544 2543 2550 am   BACKBONE|DICT|INTERRES
  2545 2543 2544 1    
  2546 2543 2557 1    
  2547 2544 2549 ar   
  2548 2544 2545 ar   
  2549 2545 2552 1    
  2550 2545 2546 ar   
  2551 2546 2553 1    
  2552 2546 2547 ar   
  2553 2547 2548 ar   
  2554 2548 2554 1    
  2555 2548 2549 ar   
  2556 2549 2555 1    
  2557 2550 2551 1    
  2558 2551 2558 1    
  2559 2551 2560 1    
  2560 2551 2559 1    
  2561 2561 2576 1    
  2562 2561 2567 1    
  2563 2562 2570 2    
  2564 2563 2577 1    
  2565 2563 2570 am   BACKBONE|DICT|INTERRES
  2566 2563 2564 1    
  2567 2564 2565 ar   
  2568 2564 2569 ar   
  2569 2565 2572 1    
  2570 2565 2566 ar   
  2571 2566 2567 ar   
  2572 2566 2573 1    
  2573 2567 2568 ar   
  2574 2568 2569 ar   
  2575 2568 2574 1    
  2576 2569 2575 1    
  2577 2570 2571 1    
  2578 2571 2579 1    
  2579 2571 2578 1    
  2580 2571 2580 1    
  2581 2581 2596 1    
  2582 2581 2587 1    
  2583 2582 2590 2    
  2584 2583 2584 1    
  2585 2583 2597 1    
  2586 2583 2590 am   BACKBONE|DICT|INTERRES
  2587 2584 2585 ar   
  2588 2584 2589 ar   
  2589 2585 2586 ar   
  2590 2585 2592 1    
  2591 2586 2593 1    
  2592 2586 2587 ar   
  2593 2587 2588 ar   
  2594 2588 2594 1    
  2595 2588 2589 ar   
  2596 2589 2595 1    
  2597 2590 2591 1    
  2598 2591 2599 1    
  2599 2591 2598 1    
  2600 2591 2600 1    
  2601 2601 2616 1    
  2602 2601 2607 1    
  2603 2602 2610 2    
  2604 2603 2604 1    
  2605 2603 2617 1    
  2606 2603 2610 am   BACKBONE|DICT|INTERRES
  2607 2604 2609 ar   
  2608 2604 2605 ar   
  2609 2605 2606 ar   
  2610 2605 2612 1    
  2611 2606 2607 ar   
  2612 2606 2613 1    
  2613 2607 2608 ar   
  2614 2608 2609 ar   
  2615 2608 2614 1    
  2616 2609 2615 1    
  2617 2610 2611 1    
  2618 2611 2618 1    
  2619 2611 2620 1    
  2620 2611 2619 1    
  2621 2621 2627 1    
  2622 2621 2636 1    
  2623 2622 2630 2    
  2624 2623 2630 am   BACKBONE|DICT|INTERRES
  2625 2623 2624 1    
  2626 2623 2637 1    
  2627 2624 2629 ar   
  2628 2624 2625 ar   
  2629 2625 2632 1    
  2630 2625 2626 ar   
  2631 2626 2633 1    
  2632 2626 2627 ar   
  2633 2627 2628 ar   
  2634 2628 2634 1    
  2635 2628 2629 ar   
  2636 2629 2635 1    
  2637 2630 2631 1    
  2638 2631 2638 1    
  2639 2631 2640 1    
  2640 2631 2639 1    
  2641 2641 2656 1    
  2642 2641 2647 1    
  2643 2642 2650 2    
  2644 2643 2657 1    
  2645 2643 2650 am   BACKBONE|DICT|INTERRES
  2646 2643 2644 1    
  2647 2644 2645 ar   
  2648 2644 2649 ar   
  2649 2645 2652 1    
  2650 2645 2646 ar   
  2651 2646 2647 ar   
  2652 2646 2653 1    
  2653 2647 2648 ar   
  2654 2648 2649 ar   
  2655 2648 2654 1    
  2656 2649 2655 1    
  2657 2650 2651 1    
  2658 2651 2659 1    
  2659 2651 2658 1    
  2660 2651 2660 1    
  2661 2661 2676 1    
  2662 2661 2667 1    
  2663 2662 2670 2    
  2664 2663 2664 1    
  2665 2663 2677 1    
  2666 2663 2670 am   BACKBONE|DICT|INTERRES
  2667 2664 2665 ar   
  2668 2664 2669 ar   
  2669 2665 2666 ar   
  2670 2665 2672 1    
  2671 2666 2673 1    
  2672 2666 2667 ar   
  2673 2667 2668 ar   
  2674 2668 2674 1    
  2675 2668 2669 ar   
  2676 2669 2675 1    
  2677 2670 2671 1    
  2678 2671 2679 1    
  2679 2671 2678 1    
  2680 2671 2680 1    
  2681 2681 2696 1    
  2682 2681 2687 1    
  2683 2682 2690 2    
  2684 2683 2684 1    
  2685 2683 2697 1    
  2686 2683 2690 am   BACKBONE|DICT|INTERRES
  2687 2684 2689 ar   
  2688 2684 2685 ar   
  2689 2685 2686 ar   
  2690 2685 2692 1    
  2691 2686 2687 ar   
  2692 2686 2693 1    
  2693 2687 2688 ar   
  2694 2688 2689 ar   
  2695 2688 2694 1    
  2696 2689 2695 1    
  2697 2690 2691 1    
  2698 2691 2698 1    
  2699 2691 2700 1    
  2700 2691 2699 1    
  2701 2701 2707 1    
  2702 2701 2716 1    
  2703 2702 2710 2    
  2704 2703 2710 am   BACKBONE|DICT|INTERRES
  2705 2703 2704 1    
  2706 2703 2717 1    
  2707 2704 2709 ar   
  2708 2704 2705 ar   
  2709 2705 2712 1    
  2710 2705 2706 ar   
  2711 2706 2713 1    
  2712 2706 2707 ar   
  2713 2707 2708 ar   
  2714 2708 2714 1    
  2715 2708 2709 ar   
  2716 2709 2715 1    
  2717 2710 2711 1    
  2718 2711 2718 1    
  2719 2711 2720 1    
  2720 2711 2719 1    
  2721 2721 2736 1    
  2722 2721 2727 1    
  2723 2722 2730 2    
  2724 2723 2737 1    
  2725 2723 2730 am   BACKBONE|DICT|INTERRES
  2726 2723 2724 1    
  2727 2724 2725 ar   
  2728 2724 2729 ar   
  2729 2725 2732 1    
  2730 2725 2726 ar   
  2731 2726 2727 ar   
  2732 2726 2733 1    
  2733 2727 2728 ar   
  2734 2728 2729 ar   
  2735 2728 2734 1    
  2736 2729 2735 1    
  2737 2730 2731 1    
  2738 2731 2739 1    
  2739 2731 2738 1    
  2740 2731 2740 1    
  2741 2741 2756 1    
  2742 2741 2747 1    
  2743 2742 2750 2    
  2744 2743 2744 1    
  2745 2743 2757 1    
  2746 2743 2750 am   BACKBONE|DICT|INTERRES
  2747 2744 2745 ar   
  2748 2744 2749 ar   
  2749 2745 2746 ar   
  2750 2745 2752 1    
  2751 2746 2753 1    
  2752 2746 2747 ar   
  2753 2747 2748 ar   
  2754 2748 2754 1    
  2755 2748 2749 ar   
  2756 2749 2755 1    
  2757 2750 2751 1    
  2758 2751 2759 1    
  2759 2751 2758 1    
  2760 2751 2760 1    
  2761 2761 2776 1    
  2762 2761 2767 1    
  2763 2762 2770 2    
  2764 2763 2764 1    
  2765 2763 2777 1    
  2766 2763 2770 am   BACKBONE|DICT|INTERRES
  2767 2764 2769 ar   
  2768 2764 2765 ar   
  2769 2765 2766 ar   
  2770 2765 2772 1    
  2771 2766 2767 ar   
  2772 2766 2773 1    
  2773 2767 2768 ar   
  2774 2768 2769 ar   
  2775 2768 2774 1    
  2776 2769 2775 1    
  2777 2770 2771 1    
  2778 2771 2778 1    
  2779 2771 2780 1    
  2780 2771 2779 1    
  2781 2781 2787 1    
  2782 2781 2796 1    
  2783 2782 2790 2    
  2784 2783 2790 am   BACKBONE|DICT|INTERRES
  2785 2783 2784 1    
  2786 2783 2797 1    
  2787 2784 2789 ar   
  2788 2784 2785 ar   
  2789 2785 2792 1    
  2790 2785 2786 ar   
  2791 2786 2793 1    
  2792 2786 2787 ar   
  2793 2787 2788 ar   
  2794 2788 2794 1    
  2795 2788 2789 ar   
  2796 2789 2795 1    
  2797 2790 2791 1    
  2798 2791 2798 1    
  2799 2791 2800 1    
  2800 2791 2799 1    
  2801 2801 2816 1    
  2802 2801 2807 1    
  2803 2802 2810 2    
  2804 2803 2817 1    
  2805 2803 2810 am   BACKBONE|DICT|INTERRES
  2806 2803 2804 1    
  2807 2804 2805 ar   
  2808 2804 2809 ar   
  2809 2805 2812 1    
  2810 2805 2806 ar   
  2811 2806 2807 ar   
  2812 2806 2813 1    
  2813 2807 2808 ar   
  2814 2808 2809 ar   
  2815 2808 2814 1    
  2816 2809 2815 1    
  2817 2810 2811 1    
  2818 2811 2819 1    
  2819 2811 2818 1    
  2820 2811 2820 1    
  2821 2821 2836 1    
  2822 2821 2827 1    
  2823 2822 2830 2    
  2824 2823 2824 1    
  2825 2823 2837 1    
  2826 2823 2830 am   BACKBONE|DICT|INTERRES
  2827 2824 2825 ar   
  2828 2824 2829 ar   
  2829 2825 2826 ar   
  2830 2825 2832 1    
  2831 2826 2833 1    
  2832 2826 2827 ar   
  2833 2827 2828 ar   
  2834 2828 2834 1    
  2835 2828 2829 ar   
  2836 2829 2835 1    
  2837 2830 2831 1    
  2838 2831 2839 1    
  2839 2831 2838 1    
  2840 2831 2840 1    
  2841 2841 2856 1    
  2842 2841 2847 1    
  2843 2842 2850 2    
  2844 2843 2844 1    
  2845 2843 2857 1    
  2846 2843 2850 am   BACKBONE|DICT|INTERRES
  2847 2844 2849 ar   
  2848 2844 2845 ar   
  2849 2845 2846 ar   
  2850 2845 2852 1    
  2851 2846 2847 ar   
  2852 2846 2853 1    
  2853 2847 2848 ar   
  2854 2848 2849 ar   
  2855 2848 2854 1    
  2856 2849 2855 1    
  2857 2850 2851 1    
  2858 2851 2858 1    
  2859 2851 2860 1    
  2860 2851 2859 1    
  2861 2861 2867 1    
  2862 2861 2876 1    
  2863 2862 2870 2    
  2864 2863 2870 am   BACKBONE|DICT|INTERRES
  2865 2863 2864 1    
  2866 2863 2877 1    
  2867 2864 2869 ar   
  2868 2864 2865 ar   
  2869 2865 2872 1    
  2870 2865 2866 ar   
  2871 2866 2873 1    
  2872 2866 2867 ar   
  2873 2867 2868 ar   
  2874 2868 2874 1    
  2875 2868 2869 ar   
  2876 2869 2875 1    
  2877 2870 2871 1    
  2878 2871 2878 1    
  2879 2871 2880 1    
  2880 2871 2879 1    
  2881 2881 2896 1    
  2882 2881 2887 1    
  2883 2882 2890 2    
  2884 2883 2897 1    
  2885 2883 2890 am   BACKBONE|DICT|INTERRES
  2886 2883 2884 1    
  2887 2884 2885 ar   
  2888 2884 2889 ar   
  2889 2885 2892 1    
  2890 2885 2886 ar   
  2891 2886 2887 ar   
  2892 2886 2893 1    
  2893 2887 2888 ar   
  2894 2888 2889 ar   
  2895 2888 2894 1    
  2896 2889 2895 1    
  2897 2890 2891 1    
  2898 2891 2899 1    
  2899 2891 2898 1    
  2900 2891 2900 1    
  2901 2901 2916 1    
  2902 2901 2907 1    
  2903 2902 2910 2    
  2904 2903 2904 1    
  2905 2903 2917 1    
  2906 2903 2910 am   BACKBONE|DICT|INTERRES
  2907 2904 2905 ar   
  2908 2904 2909 ar   
  2909 2905 2906 ar   
  2910 2905 2912 1    
  2911 2906 2913 1    
  2912 2906 2907 ar   
  2913 2907 2908 ar   
  2914 2908 2914 1    
  2915 2908 2909 ar   
  2916 2909 2915 1    
  2917 2910 2911 1    
  2918 2911 2919 1    
  2919 2911 2918 1    
  2920 2911 2920 1    
  2921 2921 2936 1    
  2922 2921 2927 1    
  2923 2922 2930 2    
  2924 2923 2924 1    
  2925 2923 2937 1    
  2926 2923 2930 am   BACKBONE|DICT|INTERRES
  2927 2924 2929 ar   
  2928 2924 2925 ar   
  2929 2925 2926 ar   
  2930 2925 2932 1    
  2931 2926 2927 ar   
  2932 2926 2933 1    
  2933 2927 2928 ar   
  2934 2928 2929 ar   
  2935 2928 2934 1    
  2936 2929 2935 1    
  2937 2930 2931 1    
  2938 2931 2938 1    
  2939 2931 2940 1    
  2940 2931 2939 1    
  2941 2941 2947 1    
  2942 2941 2956 1    
  2943 2942 2950 2    
  2944 2943 2950 am   BACKBONE|DICT|INTERRES
  2945 2943 2944 1    
  2946 2943 2957 1    
  2947 2944 2949 ar   
  2948 2944 2945 ar   
  2949 2945 2952 1    
  2950 2945 2946 ar   
  2951 2946 2953 1    
  2952 2946 2947 ar   
  2953 2947 2948 ar   
  2954 2948 2954 1    
  2955 2948 2949 ar   
  2956 2949 2955 1    
  2957 2950 2951 1    
  2958 2951 2958 1    
  2959 2951 2960 1    
  2960 2951 2959 1    
  2961 2961 2976 1    
  2962 2961 2967 1    
  2963 2962 2970 2    
  2964 2963 2977 1    
  2965 2963 2970 am   BACKBONE|DICT|INTERRES
  2966 2963 2964 1    
  2967 2964 2965 ar   
  2968 2964 2969 ar   
  2969 2965 2972 1    
  2970 2965 2966 ar   
  2971 2966 2967 ar   
  2972 2966 2973 1    
  2973 2967 2968 ar   
  2974 2968 2969 ar   
  2975 2968 2974 1    
  2976 2969 2975 1    
  2977 2970 2971 1    
  2978 2971 2979 1    
  2979 2971 2978 1    
  2980 2971 2980 1    
  2981 2981 2996 1    
  2982 2981 2987 1    
  2983 2982 2990 2    
  2984 2983 2984 1    
  2985 2983 2997 1    
  2986 2983 2990 am   BACKBONE|DICT|INTERRES
  2987 2984 2985 ar   
  2988 2984 2989 ar   
  2989 2985 2986 ar   
  2990 2985 2992 1    
  2991 2986 2993 1    
  2992 2986 2987 ar   
  2993 2987 2988 ar   
  2994 2988 2994 1    
  2995 2988 2989 ar   
  2996 2989 2995 1    
  2997 2990 2991 1    
  2998 2991 2999 1    
  2999 2991 2998 1    
  3000 2991 3000 1    
  3001 3001 3016 1    
  3002 3001 3007 1    
  3003 3002 3010 2    
  3004 3003 3004 1    
  3005 3003 3017 1    
  3006 3003 3010 am   BACKBONE|DICT|INTERRES
  3007 3004 3009 ar   
  3008 3004 3005 ar   
  3009 3005 3006 ar   
  3010 3005 3012 1    
  3011 3006 3007 ar   
  3012 3006 3013 1    
  3013 3007 3008 ar   
  3014 3008 3009 ar   
  3015 3008 3014 1    
  3016 3009 3015 1    
  3017 3010 3011 1    
  3018 3011 3018 1    
  3019 3011 3020 1    
  3020 3011 3019 1    
  3021 3021 3027 1    
  3022 3021 3036 1    
  3023 3022 3030 2    
  3024 3023 3030 am   BACKBONE|DICT|INTERRES
  3025 3023 3024 1    
  3026 3023 3037 1    
  3027 3024 3029 ar   
  3028 3024 3025 ar   
  3029 3025 3032 1    
  3030 3025 3026 ar   
  3031 3026 3033 1    
  3032 3026 3027 ar   
  3033 3027 3028 ar   
  3034 3028 3034 1    
  3035 3028 3029 ar   
  3036 3029 3035 1    
  3037 3030 3031 1    
  3038 3031 3038 1    
  3039 3031 3040 1    
  3040 3031 3039 1    
  3041 3041 3056 1    
  3042 3041 3047 1    
  3043 3042 3050 2    
  3044 3043 3057 1    
  3045 3043 3050 am   BACKBONE|DICT|INTERRES
  3046 3043 3044 1    
  3047 3044 3045 ar   
  3048 3044 3049 ar   
  3049 3045 3052 1    
  3050 3045 3046 ar   
  3051 3046 3047 ar   
  3052 3046 3053 1    
  3053 3047 3048 ar   
  3054 3048 3049 ar   
  3055 3048 3054 1    
  3056 3049 3055 1    
  3057 3050 3051 1    
  3058 3051 3059 1    
  3059 3051 3058 1    
  3060 3051 3060 1    
  3061 3061 3076 1    
  3062 3061 3067 1    
  3063 3062 3070 2    
  3064 3063 3064 1    
  3065 3063 3077 1    
  3066 3063 3070 am   BACKBONE|DICT|INTERRES
  3067 3064 3065 ar   
  3068 3064 3069 ar   
  3069 3065 3066 ar   
  3070 3065 3072 1    
  3071 3066 3073 1    
  3072 3066 3067 ar   
  3073 3067 3068 ar   
  3074 3068 3074 1    
  3075 3068 3069 ar   
  3076 3069 3075 1    
  3077 3070 3071 1    
  3078 3071 3079 1    
  3079 3071 3078 1    
  3080 3071 3080 1    
  3081 3081 3096 1    
  3082 3081 3087 1    
  3083 3082 3090 2    
  3084 3083 3084 1    
  3085 3083 3097 1    
  3086 3083 3090 am   BACKBONE|DICT|INTERRES
  3087 3084 3089 ar   
  3088 3084 3085 ar   
  3089 3085 3086 ar   
  3090 3085 3092 1    
  3091 3086 3087 ar   
  3092 3086 3093 1    
  3093 3087 3088 ar   
  3094 3088 3089 ar   
  3095 3088 3094 1    
  3096 3089 3095 1    
  3097 3090 3091 1    
  3098 3091 3098 1    
  3099 3091 3100 1    
  3100 3091 3099 1    
  3101 3101 3107 1    
  3102 3101 3116 1    
  3103 3102 3110 2    
  3104 3103 3110 am   BACKBONE|DICT|INTERRES
  3105 3103 3104 1    
  3106 3103 3117 1    
  3107 3104 3109 ar   
  3108 3104 3105 ar   
  3109 3105 3112 1    
  3110 3105 3106 ar   
  3111 3106 3113 1    
  3112 3106 3107 ar   
  3113 3107 3108 ar   
  3114 3108 3114 1    
  3115 3108 3109 ar   
  3116 3109 3115 1    
  3117 3110 3111 1    
  3118 3111 3118 1    
  3119 3111 3120 1    
  3120 3111 3119 1    
  3121 3121 3136 1    
  3122 3121 3127 1    
  3123 3122 3130 2    
  3124 3123 3137 1    
  3125 3123 3130 am   BACKBONE|DICT|INTERRES
  3126 3123 3124 1    
  3127 3124 3125 ar   
  3128 3124 3129 ar   
  3129 3125 3132 1    
  3130 3125 3126 ar   
  3131 3126 3127 ar   
  3132 3126 3133 1    
  3133 3127 3128 ar   
  3134 3128 3129 ar   
  3135 3128 3134 1    
  3136 3129 3135 1    
  3137 3130 3131 1    
  3138 3131 3139 1    
  3139 3131 3138 1    
  3140 3131 3140 1    
  3141 3141 3156 1    
  3142 3141 3147 1    
  3143 3142 3150 2    
  3144 3143 3144 1    
  3145 3143 3157 1    
  3146 3143 3150 am   BACKBONE|DICT|INTERRES
  3147 3144 3145 ar   
  3148 3144 3149 ar   
  3149 3145 3146 ar   
  3150 3145 3152 1    
  3151 3146 3153 1    
  3152 3146 3147 ar   
  3153 3147 3148 ar   
  3154 3148 3154 1    
  3155 3148 3149 ar   
  3156 3149 3155 1    
  3157 3150 3151 1    
  3158 3151 3159 1    
  3159 3151 3158 1    
  3160 3151 3160 1    
  3161 3161 3176 1    
  3162 3161 3167 1    
  3163 3162 3170 2    
  3164 3163 3164 1    
  3165 3163 3177 1    
  3166 3163 3170 am   BACKBONE|DICT|INTERRES
  3167 3164 3169 ar   
  3168 3164 3165 ar   
  3169 3165 3166 ar   
  3170 3165 3172 1    
  3171 3166 3167 ar   
  3172 3166 3173 1    
  3173 3167 3168 ar   
  3174 3168 3169 ar   
  3175 3168 3174 1    
  3176 3169 3175 1    
  3177 3170 3171 1    
  3178 3171 3178 1    
  3179 3171 3180 1    
  3180 3171 3179 1    
  3181 3181 3187 1    
  3182 3181 3196 1    
  3183 3182 3190 2    
  3184 3183 3190 am   BACKBONE|DICT|INTERRES
  3185 3183 3184 1    
  3186 3183 3197 1    
  3187 3184 3189 ar   
  3188 3184 3185 ar   
  3189 3185 3192 1    
  3190 3185 3186 ar   
  3191 3186 3193 1    
  3192 3186 3187 ar   
  3193 3187 3188 ar   
  3194 3188 3194 1    
  3195 3188 3189 ar   
  3196 3189 3195 1    
  3197 3190 3191 1    
  3198 3191 3198 1    
  3199 3191 3200 1    
  3200 3191 3199 1    
  3201 3201 3216 1    
  3202 3201 3207 1    
  3203 3202 3210 2    
  3204 3203 3217 1    
  3205 3203 3210 am   BACKBONE|DICT|INTERRES
  3206 3203 3204 1    
  3207 3204 3205 ar   
  3208 3204 3209 ar   
  3209 3205 3212 1    
  3210 3205 3206 ar   
  3211 3206 3207 ar   
  3212 3206 3213 1    
  3213 3207 3208 ar   
  3214 3208 3209 ar   
  3215 3208 3214 1    
  3216 3209 3215 1    
  3217 3210 3211 1    
  3218 3211 3219 1    
  3219 3211 3218 1    
  3220 3211 3220 1    
  3221 3221 3236 1    
  3222 3221 3227 1    
  3223 3222 3230 2    
  3224 3223 3224 1    
  3225 3223 3237 1    
  3226 3223 3230 am   BACKBONE|DICT|INTERRES
  3227 3224 3225 ar   
  3228 3224 3229 ar   
  3229 3225 3226 ar   
  3230 3225 3232 1    
  3231 3226 3233 1    
  3232 3226 3227 ar   
  3233 3227 3228 ar   
  3234 3228 3234 1    
  3235 3228 3229 ar   
  3236 3229 3235 1    
  3237 3230 3231 1    
  3238 3231 3239 1    
  3239 3231 3238 1    
  3240 3231 3240 1    
  3241 3241 3256 1    
  3242 3241 3247 1    
  3243 3242 3250 2    
  3244 3243 3244 1    
  3245 3243 3257 1    
  3246 3243 3250 am   BACKBONE|DICT|INTERRES
  3247 3244 3249 ar   
  3248 3244 3245 ar   
  3249 3245 3246 ar   
  3250 3245 3252 1    
  3251 3246 3247 ar   
  3252 3246 3253 1    
  3253 3247 3248 ar   
  3254 3248 3249 ar   
  3255 3248 3254 1    
  3256 3249 3255 1    
  3257 3250 3251 1    
  3258 3251 3258 1    
  3259 3251 3260 1    
  3260 3251 3259 1    
  3261 3261 3267 1    
  3262 3261 3276 1    
  3263 3262 3270 2    
  3264 3263 3270 am   BACKBONE|DICT|INTERRES
  3265 3263 3264 1    
  3266 3263 3277 1    
  3267 3264 3269 ar   
  3268 3264 3265 ar   
  3269 3265 3272 1    
  3270 3265 3266 ar   
  3271 3266 3273 1    
  3272 3266 3267 ar   
  3273 3267 3268 ar   
  3274 3268 3274 1    
  3275 3268 3269 ar   
  3276 3269 3275 1    
  3277 3270 3271 1    
  3278 3271 3278 1    
  3279 3271 3280 1    
  3280 3271 3279 1    
  3281 3281 3296 1    
  3282 3281 3287 1    
  3283 3282 3290 2    
  3284 3283 3297 1    
  3285 3283 3290 am   BACKBONE|DICT|INTERRES
  3286 3283 3284 1    
  3287 3284 3285 ar   
  3288 3284 3289 ar   
  3289 3285 3292 1    
  3290 3285 3286 ar   
  3291 3286 3287 ar   
  3292 3286 3293 1    
  3293 3287 3288 ar   
  3294 3288 3289 ar   
  3295 3288 3294 1    
  3296 3289 3295 1    
  3297 3290 3291 1    
  3298 3291 3299 1    
  3299 3291 3298 1    
  3300 3291 3300 1    
  3301 3301 3316 1    
  3302 3301 3307 1    
  3303 3302 3310 2    
  3304 3303 3304 1    
  3305 3303 3317 1    
  3306 3303 3310 am   BACKBONE|DICT|INTERRES
  3307 3304 3305 ar   
  3308 3304 3309 ar   
  3309 3305 3306 ar   
  3310 3305 3312 1    
  3311 3306 3313 1    
  3312 3306 3307 ar   
  3313 3307 3308 ar   
  3314 3308 3314 1    
  3315 3308 3309 ar   
  3316 3309 3315 1    
  3317 3310 3311 1    
  3318 3311 3319 1    
  3319 3311 3318 1    
  3320 3311 3320 1    
  3321 3321 3336 1    
  3322 3321 3327 1    
  3323 3322 3330 2    
  3324 3323 3324 1    
  3325 3323 3337 1    
  3326 3323 3330 am   BACKBONE|DICT|INTERRES
  3327 3324 3329 ar   
  3328 3324 3325 ar   
  3329 3325 3326 ar   
  3330 3325 3332 1    
  3331 3326 3327 ar   
  3332 3326 3333 1    
  3333 3327 3328 ar   
  3334 3328 3329 ar   
  3335 3328 3334 1    
  3336 3329 3335 1    
  3337 3330 3331 1    
  3338 3331 3338 1    
  3339 3331 3340 1    
  3340 3331 3339 1    
  3341 3341 3347 1    
  3342 3341 3356 1    
  3343 3342 3350 2    
  3344 3343 3350 am   BACKBONE|DICT|INTERRES
  3345 3343 3344 1    
  3346 3343 3357 1    
  3347 3344 3349 ar   
  3348 3344 3345 ar   
  3349 3345 3352 1    
  3350 3345 3346 ar   
  3351 3346 3353 1    
  3352 3346 3347 ar   
  3353 3347 3348 ar   
  3354 3348 3354 1    
  3355 3348 3349 ar   
  3356 3349 3355 1    
  3357 3350 3351 1    
  3358 3351 3358 1    
  3359 3351 3360 1    
  3360 3351 3359 1    
  3361 3361 3376 1    
  3362 3361 3367 1    
  3363 3362 3370 2    
  3364 3363 3377 1    
  3365 3363 3370 am   BACKBONE|DICT|INTERRES
  3366 3363 3364 1    
  3367 3364 3365 ar   
  3368 3364 3369 ar   
  3369 3365 3372 1    
  3370 3365 3366 ar   
  3371 3366 3367 ar   
  3372 3366 3373 1    
  3373 3367 3368 ar   
  3374 3368 3369 ar   
  3375 3368 3374 1    
  3376 3369 3375 1    
  3377 3370 3371 1    
  3378 3371 3379 1    
  3379 3371 3378 1    
  3380 3371 3380 1    
  3381 3381 3396 1    
  3382 3381 3387 1    
  3383 3382 3390 2    
  3384 3383 3384 1    
  3385 3383 3397 1    
  3386 3383 3390 am   BACKBONE|DICT|INTERRES
  3387 3384 3385 ar   
  3388 3384 3389 ar   
  3389 3385 3386 ar   
  3390 3385 3392 1    
  3391 3386 3393 1    
  3392 3386 3387 ar   
  3393 3387 3388 ar   
  3394 3388 3394 1    
  3395 3388 3389 ar   
  3396 3389 3395 1    
  3397 3390 3391 1    
  3398 3391 3399 1    
  3399 3391 3398 1    
  3400 3391 3400 1    
  3401 3401 3416 1    
  3402 3401 3407 1    
  3403 3402 3410 2    
  3404 3403 3404 1    
  3405 3403 3417 1    
  3406 3403 3410 am   BACKBONE|DICT|INTERRES
  3407 3404 3409 ar   
  3408 3404 3405 ar   
  3409 3405 3406 ar   
  3410 3405 3412 1    
  3411 3406 3407 ar   
  3412 3406 3413 1    
  3413 3407 3408 ar   
  3414 3408 3409 ar   
  3415 3408 3414 1    
  3416 3409 3415 1    
  3417 3410 3411 1    
  3418 3411 3418 1    
  3419 3411 3420 1    
  3420 3411 3419 1    
  3421 3421 3427 1    
  3422 3421 3436 1    
  3423 3422 3430 2    
  3424 3423 3430 am   BACKBONE|DICT|INTERRES
  3425 3423 3424 1    
  3426 3423 3437 1    
  3427 3424 3429 ar   
  3428 3424 3425 ar   
  3429 3425 3432 1    
  3430 3425 3426 ar   
  3431 3426 3433 1    
  3432 3426 3427 ar   
  3433 3427 3428 ar   
  3434 3428 3434 1    
  3435 3428 3429 ar   
  3436 3429 3435 1    
  3437 3430 3431 1    
  3438 3431 3438 1    
  3439 3431 3440 1    
  3440 3431 3439 1    
  3441 3441 3456 1    
  3442 3441 3447 1    
  3443 3442 3450 2    
  3444 3443 3457 1    
  3445 3443 3450 am   BACKBONE|DICT|INTERRES
  3446 3443 3444 1    
  3447 3444 3445 ar   
  3448 3444 3449 ar   
  3449 3445 3452 1    
  3450 3445 3446 ar   
  3451 3446 3447 ar   
  3452 3446 3453 1    
  3453 3447 3448 ar   
  3454 3448 3449 ar   
  3455 3448 3454 1    
  3456 3449 3455 1    
  3457 3450 3451 1    
  3458 3451 3459 1    
  3459 3451 3458 1    
  3460 3451 3460 1    
  3461 3461 3476 1    
  3462 3461 3467 1    
  3463 3462 3470 2    
  3464 3463 3464 1    
  3465 3463 3477 1    
  3466 3463 3470 am   BACKBONE|DICT|INTERRES
  3467 3464 3465 ar   
  3468 3464 3469 ar   
  3469 3465 3466 ar   
  3470 3465 3472 1    
  3471 3466 3473 1    
  3472 3466 3467 ar   
  3473 3467 3468 ar   
  3474 3468 3474 1    
  3475 3468 3469 ar   
  3476 3469 3475 1    
  3477 3470 3471 1    
  3478 3471 3479 1    
  3479 3471 3478 1    
  3480 3471 3480 1    
  3481 3481 3496 1    
  3482 3481 3487 1    
  3483 3482 3490 2    
  3484 3483 3484 1    
  3485 3483 3497 1    
  3486 3483 3490 am   BACKBONE|DICT|INTERRES
  3487 3484 3489 ar   
  3488 3484 3485 ar   
  3489 3485 3486 ar   
  3490 3485 3492 1    
  3491 3486 3487 ar   
  3492 3486 3493 1    
  3493 3487 3488 ar   
  3494 3488 3489 ar   
  3495 3488 3494 1    
  3496 3489 3495 1    
  3497 3490 3491 1    
  3498 3491 3498 1    
  3499 3491 3500 1    
  3500 3491 3499 1    
  3501 3501 3507 1    
  3502 3501 3516 1    
  3503 3502 3510 2    
  3504 3503 3510 am   BACKBONE|DICT|INTERRES
  3505 3503 3504 1    
  3506 3503 3517 1    
  3507 3504 3509 ar   
  3508 3504 3505 ar   
  3509 3505 3512 1    
  3510 3505 3506 ar   
  3511 3506 3513 1    
  3512 3506 3507 ar   
  3513 3507 3508 ar   
  3514 3508 3514 1    
  3515 3508 3509 ar   
  3516 3509 3515 1    
  3517 3510 3511 1    
  3518 3511 3518 1    
  3519 3511 3520 1    
  3520 3511 3519 1    
  3521 3521 3536 1    
  3522 3521 3527 1    
  3523 3522 3530 2    
  3524 3523 3537 1    
  3525 3523 3530 am   BACKBONE|DICT|INTERRES
  3526 3523 3524 1    
  3527 3524 3525 ar   
  3528 3524 3529 ar   
  3529 3525 3532 1    
  3530 3525 3526 ar   
  3531 3526 3527 ar   
  3532 3526 3533 1    
  3533 3527 3528 ar   
  3534 3528 3529 ar   
  3535 3528 3534 1    
  3536 3529 3535 1    
  3537 3530 3531 1    
  3538 3531 3539 1    
  3539 3531 3538 1    
  3540 3531 3540 1    
  3541 3541 3556 1    
  3542 3541 3547 1    
  3543 3542 3550 2    
  3544 3543 3544 1    
  3545 3543 3557 1    
  3546 3543 3550 am   BACKBONE|DICT|INTERRES
  3547 3544 3545 ar   
  3548 3544 3549 ar   
  3549 3545 3546 ar   
  3550 3545 3552 1    
  3551 3546 3553 1    
  3552 3546 3547 ar   
  3553 3547 3548 ar   
  3554 3548 3554 1    
  3555 3548 3549 ar   
  3556 3549 3555 1    
  3557 3550 3551 1    
  3558 3551 3559 1    
  3559 3551 3558 1    
  3560 3551 3560 1    
  3561 3561 3576 1    
  3562 3561 3567 1    
  3563 3562 3570 2    
  3564 3563 3564 1    
  3565 3563 3577 1    
  3566 3563 3570 am   BACKBONE|DICT|INTERRES
  3567 3564 3569 ar   
  3568 3564 3565 ar   
  3569 3565 3566 ar   
  3570 3565 3572 1    
  3571 3566 3567 ar   
  3572 3566 3573 1    
  3573 3567 3568 ar   
  3574 3568 3569 ar   
  3575 3568 3574 1    
  3576 3569 3575 1    
  3577 3570 3571 1    
  3578 3571 3578 1    
  3579 3571 3580 1    
  3580 3571 3579 1    
  3581 3581 3587 1    
  3582 3581 3596 1    
  3583 3582 3590 2    
  3584 3583 3590 am   BACKBONE|DICT|INTERRES
  3585 3583 3584 1    
  3586 3583 3597 1    
  3587 3584 3589 ar   
  3588 3584 3585 ar   
  3589 3585 3592 1    
  3590 3585 3586 ar   
  3591 3586 3593 1    
  3592 3586 3587 ar   
  3593 3587 3588 ar   
  3594 3588 3594 1    
  3595 3588 3589 ar   
  3596 3589 3595 1    
  3597 3590 3591 1    
  3598 3591 3598 1    
  3599 3591 3600 1    
  3600 3591 3599 1    
  3601 3601 3616 1    
  3602 3601 3607 1    
  3603 3602 3610 2    
  3604 3603 3617 1    
  3605 3603 3610 am   BACKBONE|DICT|INTERRES
  3606 3603 3604 1    
  3607 3604 3605 ar   
  3608 3604 3609 ar   
  3609 3605 3612 1    
  3610 3605 3606 ar   
  3611 3606 3607 ar   
  3612 3606 3613 1    
  3613 3607 3608 ar   
  3614 3608 3609 ar   
  3615 3608 3614 1    
  3616 3609 3615 1    
  3617 3610 3611 1    
  3618 3611 3619 1    
  3619 3611 3618 1    
  3620 3611 3620 1    
  3621 3621 3636 1    
  3622 3621 3627 1    
  3623 3622 3630 2    
  3624 3623 3624 1    
  3625 3623 3637 1    
  3626 3623 3630 am   BACKBONE|DICT|INTERRES
  3627 3624 3625 ar   
  3628 3624 3629 ar   
  3629 3625 3626 ar   
  3630 3625 3632 1    
  3631 3626 3633 1    
  3632 3626 3627 ar   
  3633 3627 3628 ar   
  3634 3628 3634 1    
  3635 3628 3629 ar   
  3636 3629 3635 1    
  3637 3630 3631 1    
  3638 3631 3639 1    
  3639 3631 3638 1    
  3640 3631 3640 1    
  3641 3641 3656 1    
  3642 3641 3647 1    
  3643 3642 3650 2    
  3644 3643 3644 1    
  3645 3643 3657 1    
  3646 3643 3650 am   BACKBONE|DICT|INTERRES
  3647 3644 3649 ar   
  3648 3644 3645 ar   
  3649 3645 3646 ar   
  3650 3645 3652 1    
  3651 3646 3647 ar   
  3652 3646 3653 1    
  3653 3647 3648 ar   
  3654 3648 3649 ar   
  3655 3648 3654 1    
  3656 3649 3655 1    
  3657 3650 3651 1    
  3658 3651 3658 1    
  3659 3651 3660 1    
  3660 3651 3659 1    
  3661 3661 3667 1    
  3662 3661 3676 1    
  3663 3662 3670 2    
  3664 3663 3670 am   BACKBONE|DICT|INTERRES
  3665 3663 3664 1    
  3666 3663 3677 1    
  3667 3664 3669 ar   
  3668 3664 3665 ar   
  3669 3665 3672 1    
  3670 3665 3666 ar   
  3671 3666 3673 1    
  3672 3666 3667 ar   
  3673 3667 3668 ar   
  3674 3668 3674 1    
  3675 3668 3669 ar   
  3676 3669 3675 1    
  3677 3670 3671 1    
  3678 3671 3678 1    
  3679 3671 3680 1    
  3680 3671 3679 1    
  3681 3681 3696 1    
  3682 3681 3687 1    
  3683 3682 3690 2    
  3684 3683 3697 1    
  3685 3683 3690 am   BACKBONE|DICT|INTERRES
  3686 3683 3684 1    
  3687 3684 3685 ar   
  3688 3684 3689 ar   
  3689 3685 3692 1    
  3690 3685 3686 ar   
  3691 3686 3687 ar   
  3692 3686 3693 1    
  3693 3687 3688 ar   
  3694 3688 3689 ar   
  3695 3688 3694 1    
  3696 3689 3695 1    
  3697 3690 3691 1    
  3698 3691 3699 1    
  3699 3691 3698 1    
  3700 3691 3700 1    
  3701 3701 3716 1    
  3702 3701 3707 1    
  3703 3702 3710 2    
  3704 3703 3704 1    
  3705 3703 3717 1    
  3706 3703 3710 am   BACKBONE|DICT|INTERRES
  3707 3704 3705 ar   
  3708 3704 3709 ar   
  3709 3705 3706 ar   
  3710 3705 3712 1    
  3711 3706 3713 1    
  3712 3706 3707 ar   
  3713 3707 3708 ar   
  3714 3708 3714 1    
  3715 3708 3709 ar   
  3716 3709 3715 1    
  3717 3710 3711 1    
  3718 3711 3719 1    
  3719 3711 3718 1    
  3720 3711 3720 1    
  3721 3721 3736 1    
  3722 3721 3727 1    
  3723 3722 3730 2    
  3724 3723 3724 1    
  3725 3723 3737 1    
  3726 3723 3730 am   BACKBONE|DICT|INTERRES
  3727 3724 3729 ar   
  3728 3724 3725 ar   
  3729 3725 3726 ar   
  3730 3725 3732 1    
  3731 3726 3727 ar   
  3732 3726 3733 1    
  3733 3727 3728 ar   
  3734 3728 3729 ar   
  3735 3728 3734 1    
  3736 3729 3735 1    
  3737 3730 3731 1    
  3738 3731 3738 1    
  3739 3731 3740 1    
  3740 3731 3739 1    
  3741 3741 3747 1    
  3742 3741 3756 1    
  3743 3742 3750 2    
  3744 3743 3750 am   BACKBONE|DICT|INTERRES
  3745 3743 3744 1    
  3746 3743 3757 1    
  3747 3744 3749 ar   
  3748 3744 3745 ar   
  3749 3745 3752 1    
  3750 3745 3746 ar   
  3751 3746 3753 1    
  3752 3746 3747 ar   
  3753 3747 3748 ar   
  3754 3748 3754 1    
  3755 3748 3749 ar   
  3756 3749 3755 1    
  3757 3750 3751 1    
  3758 3751 3758 1    
  3759 3751 3760 1    
  3760 3751 3759 1    
  3761 3761 3776 1    
  3762 3761 3767 1    
  3763 3762 3770 2    
  3764 3763 3777 1    
  3765 3763 3770 am   BACKBONE|DICT|INTERRES
  3766 3763 3764 1    
  3767 3764 3765 ar   
  3768 3764 3769 ar   
  3769 3765 3772 1    
  3770 3765 3766 ar   
  3771 3766 3767 ar   
  3772 3766 3773 1    
  3773 3767 3768 ar   
  3774 3768 3769 ar   
  3775 3768 3774 1    
  3776 3769 3775 1    
  3777 3770 3771 1    
  3778 3771 3779 1    
  3779 3771 3778 1    
  3780 3771 3780 1    
  3781 3781 3796 1    
  3782 3781 3787 1    
  3783 3782 3790 2    
  3784 3783 3784 1    
  3785 3783 3797 1    
  3786 3783 3790 am   BACKBONE|DICT|INTERRES
  3787 3784 3785 ar   
  3788 3784 3789 ar   
  3789 3785 3786 ar   
  3790 3785 3792 1    
  3791 3786 3793 1    
  3792 3786 3787 ar   
  3793 3787 3788 ar   
  3794 3788 3794 1    
  3795 3788 3789 ar   
  3796 3789 3795 1    
  3797 3790 3791 1    
  3798 3791 3799 1    
  3799 3791 3798 1    
  3800 3791 3800 1    
  3801 3801 3816 1    
  3802 3801 3807 1    
  3803 3802 3810 2    
  3804 3803 3804 1    
  3805 3803 3817 1    
  3806 3803 3810 am   BACKBONE|DICT|INTERRES
  3807 3804 3809 ar   
  3808 3804 3805 ar   
  3809 3805 3806 ar   
  3810 3805 3812 1    
  3811 3806 3807 ar   
  3812 3806 3813 1    
  3813 3807 3808 ar   
  3814 3808 3809 ar   
  3815 3808 3814 1    
  3816 3809 3815 1    
  3817 3810 3811 1    
  3818 3811 3818 1    
  3819 3811 3820 1    
  3820 3811 3819 1    
  3821 3821 3827 1    
  3822 3821 3836 1    
  3823 3822 3830 2    
  3824 3823 3830 am   BACKBONE|DICT|INTERRES
  3825 3823 3824 1    
  3826 3823 3837 1    
  3827 3824 3829 ar   
  3828 3824 3825 ar   
  3829 3825 3832 1    
  3830 3825 3826 ar   
  3831 3826 3833 1    
  3832 3826 3827 ar   
  3833 3827 3828 ar   
  3834 3828 3834 1    
  3835 3828 3829 ar   
  3836 3829 3835 1    
  3837 3830 3831 1    
  3838 3831 3838 1    
  3839 3831 3840 1    
  3840 3831 3839 1    
  3841 3841 3856 1    
  3842 3841 3847 1    
  3843 3842 3850 2    
  3844 3843 3857 1    
  3845 3843 3850 am   BACKBONE|DICT|INTERRES
  3846 3843 3844 1    
  3847 3844 3845 ar   
  3848 3844 3849 ar   
  3849 3845 3852 1    
  3850 3845 3846 ar   
  3851 3846 3847 ar   
  3852 3846 3853 1    
  3853 3847 3848 ar   
  3854 3848 3849 ar   
  3855 3848 3854 1    
  3856 3849 3855 1    
  3857 3850 3851 1    
  3858 3851 3859 1    
  3859 3851 3858 1    
  3860 3851 3860 1    
  3861 3861 3876 1    
  3862 3861 3867 1    
  3863 3862 3870 2    
  3864 3863 3864 1    
  3865 3863 3877 1    
  3866 3863 3870 am   BACKBONE|DICT|INTERRES
  3867 3864 3865 ar   
  3868 3864 3869 ar   
  3869 3865 3866 ar   
  3870 3865 3872 1    
  3871 3866 3873 1    
  3872 3866 3867 ar   
  3873 3867 3868 ar   
  3874 3868 3874 1    
  3875 3868 3869 ar   
  3876 3869 3875 1    
  3877 3870 3871 1    
  3878 3871 3879 1    
  3879 3871 3878 1    
  3880 3871 3880 1    
  3881 3881 3896 1    
  3882 3881 3887 1    
  3883 3882 3890 2    
  3884 3883 3884 1    
  3885 3883 3897 1    
  3886 3883 3890 am   BACKBONE|DICT|INTERRES
  3887 3884 3889 ar   
  3888 3884 3885 ar   
  3889 3885 3886 ar   
  3890 3885 3892 1    
  3891 3886 3887 ar   
  3892 3886 3893 1    
  3893 3887 3888 ar   
  3894 3888 3889 ar   
  3895 3888 3894 1    
  3896 3889 3895 1    
  3897 3890 3891 1    
  3898 3891 3898 1    
  3899 3891 3900 1    
  3900 3891 3899 1    
  3901 3901 3907 1    
  3902 3901 3916 1    
  3903 3902 3910 2    
  3904 3903 3910 am   BACKBONE|DICT|INTERRES
  3905 3903 3904 1    
  3906 3903 3917 1    
  3907 3904 3909 ar   
  3908 3904 3905 ar   
  3909 3905 3912 1    
  3910 3905 3906 ar   
  3911 3906 3913 1    
  3912 3906 3907 ar   
  3913 3907 3908 ar   
  3914 3908 3914 1    
  3915 3908 3909 ar   
  3916 3909 3915 1    
  3917 3910 3911 1    
  3918 3911 3918 1    
  3919 3911 3920 1    
  3920 3911 3919 1    
  3921 3921 3936 1    
  3922 3921 3927 1    
  3923 3922 3930 2    
  3924 3923 3937 1    
  3925 3923 3930 am   BACKBONE|DICT|INTERRES
  3926 3923 3924 1    
  3927 3924 3925 ar   
  3928 3924 3929 ar   
  3929 3925 3932 1    
  3930 3925 3926 ar   
  3931 3926 3927 ar   
  3932 3926 3933 1    
  3933 3927 3928 ar   
  3934 3928 3929 ar   
  3935 3928 3934 1    
  3936 3929 3935 1    
  3937 3930 3931 1    
  3938 3931 3939 1    
  3939 3931 3938 1    
  3940 3931 3940 1    
  3941 3941 3956 1    
  3942 3941 3947 1    
  3943 3942 3950 2    
  3944 3943 3944 1    
  3945 3943 3957 1    
  3946 3943 3950 am   BACKBONE|DICT|INTERRES
  3947 3944 3945 ar   
  3948 3944 3949 ar   
  3949 3945 3946 ar   
  3950 3945 3952 1    
  3951 3946 3953 1    
  3952 3946 3947 ar   
  3953 3947 3948 ar   
  3954 3948 3954 1    
  3955 3948 3949 ar   
  3956 3949 3955 1    
  3957 3950 3951 1    
  3958 3951 3959 1    
  3959 3951 3958 1    
  3960 3951 3960 1    
  3961 3961 3976 1    
  3962 3961 3967 1    
  3963 3962 3970 2    
  3964 3963 3964 1    
  3965 3963 3977 1    
  3966 3963 3970 am   BACKBONE|DICT|INTERRES
  3967 3964 3969 ar   
  3968 3964 3965 ar   
  3969 3965 3966 ar   
  3970 3965 3972 1    
  3971 3966 3967 ar   
  3972 3966 3973 1    
  3973 3967 3968 ar   
  3974 3968 3969 ar   
  3975 3968 3974 1    
  3976 3969 3975 1    
  3977 3970 3971 1    
  3978 3971 3978 1    
  3979 3971 3980 1    
  3980 3971 3979 1    
  3981 3981 3987 1    
  3982 3981 3996 1    
  3983 3982 3990 2    
  3984 3983 3990 am   BACKBONE|DICT|INTERRES
  3985 3983 3984 1    
  3986 3983 3997 1    
  3987 3984 3989 ar   
  3988 3984 3985 ar   
  3989 3985 3992 1    
  3990 3985 3986 ar   
  3991 3986 3993 1    
  3992 3986 3987 ar   
  3993 3987 3988 ar   
  3994 3988 3994 1    
  3995 3988 3989 ar   
  3996 3989 3995 1    
  3997 3990 3991 1    
  3998 3991 3998 1    
  3999 3991 4000 1    
  4000 3991 3999 1    
  4001 4001 4016 1    
  4002 4001 4007 1    
  4003 4002 4010 2    
  4004 4003 4017 1    
  4005 4003 4010 am   BACKBONE|DICT|INTERRES
  4006 4003 4004 1    
  4007 4004 4005 ar   
  4008 4004 4009 ar   
  4009 4005 4012 1    
  4010 4005 4006 ar   
  4011 4006 4007 ar   
  4012 4006 4013 1    
  4013 4007 4008 ar   
  4014 4008 4009 ar   
  4015 4008 4014 1    
  4016 4009 4015 1    
  4017 4010 4011 1    
  4018 4011 4019 1    
  4019 4011 4018 1    
  4020 4011 4020 1    
  4021 4021 4036 1    
  4022 4021 4027 1    
  4023 4022 4030 2    
  4024 4023 4024 1    
  4025 4023 4037 1    
  4026 4023 4030 am   BACKBONE|DICT|INTERRES
  4027 4024 4025 ar   
  4028 4024 4029 ar   
  4029 4025 4026 ar   
  4030 4025 4032 1    
  4031 4026 4033 1    
  4032 4026 4027 ar   
  4033 4027 4028 ar   
  4034 4028 4034 1    
  4035 4028 4029 ar   
  4036 4029 4035 1    
  4037 4030 4031 1    
  4038 4031 4039 1    
  4039 4031 4038 1    
  4040 4031 4040 1    
  4041 4041 4056 1    
  4042 4041 4047 1    
  4043 4042 4050 2    
  4044 4043 4044 1    
  4045 4043 4057 1    
  4046 4043 4050 am   BACKBONE|DICT|INTERRES
  4047 4044 4049 ar   
  4048 4044 4045 ar   
  4049 4045 4046 ar   
  4050 4045 4052 1    
  4051 4046 4047 ar   
  4052 4046 4053 1    
  4053 4047 4048 ar   
  4054 4048 4049 ar   
  4055 4048 4054 1    
  4056 4049 4055 1    
  4057 4050 4051 1    
  4058 4051 4058 1    
  4059 4051 4060 1    
  4060 4051 4059 1    
  4061 4061 4067 1    
  4062 4061 4076 1    
  4063 4062 4070 2    
  4064 4063 4070 am   BACKBONE|DICT|INTERRES
  4065 4063 4064 1    
  4066 4063 4077 1    
  4067 4064 4069 ar   
  4068 4064 4065 ar   
  4069 4065 4072 1    
  4070 4065 4066 ar   
  4071 4066 4073 1    
  4072 4066 4067 ar   
  4073 4067 4068 ar   
  4074 4068 4074 1    
  4075 4068 4069 ar   
  4076 4069 4075 1    
  4077 4070 4071 1    
  4078 4071 4078 1    
  4079 4071 4080 1    
  4080 4071 4079 1    
  4081 4081 4096 1    
  4082 4081 4087 1    
  4083 4082 4090 2    
  4084 4083 4097 1    
  4085 4083 4090 am   BACKBONE|DICT|INTERRES
  4086 4083 4084 1    
  4087 4084 4085 ar   
  4088 4084 4089 ar   
  4089 4085 4092 1    
  4090 4085 4086 ar   
  4091 4086 4087 ar   
  4092 4086 4093 1    
  4093 4087 4088 ar   
  4094 4088 4089 ar   
  4095 4088 4094 1    
  4096 4089 4095 1    
  4097 4090 4091 1    
  4098 4091 4099 1    
  4099 4091 4098 1    
  4100 4091 4100 1    
  4101 4101 4116 1    
  4102 4101 4107 1    
  4103 4102 4110 2    
  4104 4103 4104 1    
  4105 4103 4117 1    
  4106 4103 4110 am   BACKBONE|DICT|INTERRES
  4107 4104 4105 ar   
  4108 4104 4109 ar   
  4109 4105 4106 ar   
  4110 4105 4112 1    
  4111 4106 4113 1    
  4112 4106 4107 ar   
  4113 4107 4108 ar   
  4114 4108 4114 1    
  4115 4108 4109 ar   
  4116 4109 4115 1    
  4117 4110 4111 1    
  4118 4111 4119 1    
  4119 4111 4118 1    
  4120 4111 4120 1    
  4121 4121 4136 1    
  4122 4121 4127 1    
  4123 4122 4130 2    
  4124 4123 4124 1    
  4125 4123 4137 1    
  4126 4123 4130 am   BACKBONE|DICT|INTERRES
  4127 4124 4129 ar   
  4128 4124 4125 ar   
  4129 4125 4126 ar   
  4130 4125 4132 1    
  4131 4126 4127 ar   
  4132 4126 4133 1    
  4133 4127 4128 ar   
  4134 4128 4129 ar   
  4135 4128 4134 1    
  4136 4129 4135 1    
  4137 4130 4131 1    
  4138 4131 4138 1    
  4139 4131 4140 1    
  4140 4131 4139 1    
  4141 4141 4147 1    
  4142 4141 4156 1    
  4143 4142 4150 2    
  4144 4143 4150 am   BACKBONE|DICT|INTERRES
  4145 4143 4144 1    
  4146 4143 4157 1    
  4147 4144 4149 ar   
  4148 4144 4145 ar   
  4149 4145 4152 1    
  4150 4145 4146 ar   
  4151 4146 4153 1    
  4152 4146 4147 ar   
  4153 4147 4148 ar   
  4154 4148 4154 1    
  4155 4148 4149 ar   
  4156 4149 4155 1    
  4157 4150 4151 1    
  4158 4151 4158 1    
  4159 4151 4160 1    
  4160 4151 4159 1    
  4161 4161 4176 1    
  4162 4161 4167 1    
  4163 4162 4170 2    
  4164 4163 4177 1    
  4165 4163 4170 am   BACKBONE|DICT|INTERRES
  4166 4163 4164 1    
  4167 4164 4165 ar   
  4168 4164 4169 ar   
  4169 4165 4172 1    
  4170 4165 4166 ar   
  4171 4166 4167 ar   
  4172 4166 4173 1    
  4173 4167 4168 ar   
  4174 4168 4169 ar   
  4175 4168 4174 1    
  4176 4169 4175 1    
  4177 4170 4171 1    
  4178 4171 4179 1    
  4179 4171 4178 1    
  4180 4171 4180 1    
  4181 4181 4196 1    
  4182 4181 4187 1    
  4183 4182 4190 2    
  4184 4183 4184 1    
  4185 4183 4197 1    
  4186 4183 4190 am   BACKBONE|DICT|INTERRES
  4187 4184 4185 ar   
  4188 4184 4189 ar   
  4189 4185 4186 ar   
  4190 4185 4192 1    
  4191 4186 4193 1    
  4192 4186 4187 ar   
  4193 4187 4188 ar   
  4194 4188 4194 1    
  4195 4188 4189 ar   
  4196 4189 4195 1    
  4197 4190 4191 1    
  4198 4191 4199 1    
  4199 4191 4198 1    
  4200 4191 4200 1    
  4201 4201 4216 1    
  4202 4201 4207 1    
  4203 4202 4210 2    
  4204 4203 4204 1    
  4205 4203 4217 1    
  4206 4203 4210 am   BACKBONE|DICT|INTERRES
  4207 4204 4209 ar   
  4208 4204 4205 ar   
  4209 4205 4206 ar   
  4210 4205 4212 1    
  4211 4206 4207 ar   
  4212 4206 4213 1    
  4213 4207 4208 ar   
  4214 4208 4209 ar   
  4215 4208 4214 1    
  4216 4209 4215 1    
  4217 4210 4211 1    
  4218 4211 4218 1    
  4219 4211 4220 1    
  4220 4211 4219 1    
  4221 4221 4227 1    
  4222 4221 4236 1    
  4223 4222 4230 2    
  4224 4223 4230 am   BACKBONE|DICT|INTERRES
  4225 4223 4224 1    
  4226 4223 4237 1    
  4227 4224 4229 ar   
  4228 4224 4225 ar   
  4229 4225 4232 1    
  4230 4225 4226 ar   
  4231 4226 4233 1    
  4232 4226 4227 ar   
  4233 4227 4228 ar   
  4234 4228 4234 1    
  4235 4228 4229 ar   
  4236 4229 4235 1    
  4237 4230 4231 1    
  4238 4231 4238 1    
  4239 4231 4240 1    
  4240 4231 4239 1    
  4241 4241 4256 1    
  4242 4241 4247 1    
  4243 4242 4250 2    
  4244 4243 4257 1    
  4245 4243 4250 am   BACKBONE|DICT|INTERRES
  4246 4243 4244 1    
  4247 4244 4245 ar   
  4248 4244 4249 ar   
  4249 4245 4252 1    
  4250 4245 4246 ar   
  4251 4246 4247 ar   
  4252 4246 4253 1    
  4253 4247 4248 ar   
  4254 4248 4249 ar   
  4255 4248 4254 1    
  4256 4249 4255 1    
  4257 4250 4251 1    
  4258 4251 4259 1    
  4259 4251 4258 1    
  4260 4251 4260 1    
  4261 4261 4276 1    
  4262 4261 4267 1    
  4263 4262 4270 2    
  4264 4263 4264 1    
  4265 4263 4277 1    
  4266 4263 4270 am   BACKBONE|DICT|INTERRES
  4267 4264 4265 ar   
  4268 4264 4269 ar   
  4269 4265 4266 ar   
  4270 4265 4272 1    
  4271 4266 4273 1    
  4272 4266 4267 ar   
  4273 4267 4268 ar   
  4274 4268 4274 1    
  4275 4268 4269 ar   
  4276 4269 4275 1    
  4277 4270 4271 1    
  4278 4271 4279 1    
  4279 4271 4278 1    
  4280 4271 4280 1    
  4281 4281 4296 1    
  4282 4281 4287 1    
  4283 4282 4290 2    
  4284 4283 4284 1    
  4285 4283 4297 1    
  4286 4283 4290 am   BACKBONE|DICT|INTERRES
  4287 4284 4289 ar   
  4288 4284 4285 ar   
  4289 4285 4286 ar   
  4290 4285 4292 1    
  4291 4286 4287 ar   
  4292 4286 4293 1    
  4293 4287 4288 ar   
  4294 4288 4289 ar   
  4295 4288 4294 1    
  4296 4289 4295 1    
  4297 4290 4291 1    
  4298 4291 4298 1    
  4299 4291 4300 1    
  4300 4291 4299 1    
  4301 4301 4307 1    
  4302 4301 4316 1    
  4303 4302 4310 2    
  4304 4303 4310 am   BACKBONE|DICT|INTERRES
  4305 4303 4304 1    
  4306 4303 4317 1    
  4307 4304 4309 ar   
  4308 4304 4305 ar   
  4309 4305 4312 1    
  4310 4305 4306 ar   
  4311 4306 4313 1    
  4312 4306 4307 ar   
  4313 4307 4308 ar   
  4314 4308 4314 1    
  4315 4308 4309 ar   
  4316 4309 4315 1    
  4317 4310 4311 1    
  4318 4311 4318 1    
  4319 4311 4320 1    
  4320 4311 4319 1    
  4321 4321 4336 1    
  4322 4321 4327 1    
  4323 4322 4330 2    
  4324 4323 4337 1    
  4325 4323 4330 am   BACKBONE|DICT|INTERRES
  4326 4323 4324 1    
  4327 4324 4325 ar   
  4328 4324 4329 ar   
  4329 4325 4332 1    
  4330 4325 4326 ar   
  4331 4326 4327 ar   
  4332 4326 4333 1    
  4333 4327 4328 ar   
  4334 4328 4329 ar   
  4335 4328 4334 1    
  4336 4329 4335 1    
  4337 4330 4331 1    
  4338 4331 4339 1    
  4339 4331 4338 1    
  4340 4331 4340 1    
  4341 4341 4356 1    
  4342 4341 4347 1    
  4343 4342 4350 2    
  4344 4343 4344 1    
  4345 4343 4357 1    
  4346 4343 4350 am   BACKBONE|DICT|INTERRES
  4347 4344 4345 ar   
  4348 4344 4349 ar   
  4349 4345 4346 ar   
  4350 4345 4352 1    
  4351 4346 4353 1    
  4352 4346 4347 ar   
  4353 4347 4348 ar   
  4354 4348 4354 1    
  4355 4348 4349 ar   
  4356 4349 4355 1    
  4357 4350 4351 1    
  4358 4351 4359 1    
  4359 4351 4358 1    
  4360 4351 4360 1    
  4361 4361 4376 1    
  4362 4361 4367 1    
  4363 4362 4370 2    
  4364 4363 4364 1    
  4365 4363 4377 1    
  4366 4363 4370 am   BACKBONE|DICT|INTERRES
  4367 4364 4369 ar   
  4368 4364 4365 ar   
  4369 4365 4366 ar   
  4370 4365 4372 1    
  4371 4366 4367 ar   
  4372 4366 4373 1    
  4373 4367 4368 ar   
  4374 4368 4369 ar   
  4375 4368 4374 1    
  4376 4369 4375 1    
  4377 4370 4371 1    
  4378 4371 4378 1    
  4379 4371 4380 1    
  4380 4371 4379 1    
  4381 4381 4387 1    
  4382 4381 4396 1    
  4383 4382 4390 2    
  4384 4383 4390 am   BACKBONE|DICT|INTERRES
  4385 4383 4384 1    
  4386 4383 4397 1    
  4387 4384 4389 ar   
  4388 4384 4385 ar   
  4389 4385 4392 1    
  4390 4385 4386 ar   
  4391 4386 4393 1    
  4392 4386 4387 ar   
  4393 4387 4388 ar   
  4394 4388 4394 1    
  4395 4388 4389 ar   
  4396 4389 4395 1    
  4397 4390 4391 1    
  4398 4391 4398 1    
  4399 4391 4400 1    
  4400 4391 4399 1    
  4401 4401 4416 1    
  4402 4401 4407 1    
  4403 4402 4410 2    
  4404 4403 4417 1    
  4405 4403 4410 am   BACKBONE|DICT|INTERRES
  4406 4403 4404 1    
  4407 4404 4405 ar   
  4408 4404 4409 ar   
  4409 4405 4412 1    
  4410 4405 4406 ar   
  4411 4406 4407 ar   
  4412 4406 4413 1    
  4413 4407 4408 ar   
  4414 4408 4409 ar   
  4415 4408 4414 1    
  4416 4409 4415 1    
  4417 4410 4411 1    
  4418 4411 4419 1    
  4419 4411 4418 1    
  4420 4411 4420 1    
  4421 4421 4436 1    
  4422 4421 4427 1    
  4423 4422 4430 2    
  4424 4423 4424 1    
  4425 4423 4437 1    
  4426 4423 4430 am   BACKBONE|DICT|INTERRES
  4427 4424 4425 ar   
  4428 4424 4429 ar   
  4429 4425 4426 ar   
  4430 4425 4432 1    
  4431 4426 4433 1    
  4432 4426 4427 ar   
  4433 4427 4428 ar   
  4434 4428 4434 1    
  4435 4428 4429 ar   
  4436 4429 4435 1    
  4437 4430 4431 1    
  4438 4431 4439 1    
  4439 4431 4438 1    
  4440 4431 4440 1    
  4441 4441 4456 1    
  4442 4441 4447 1    
  4443 4442 4450 2    
  4444 4443 4444 1    
  4445 4443 4457 1    
  4446 4443 4450 am   BACKBONE|DICT|INTERRES
  4447 4444 4449 ar   
  4448 4444 4445 ar   
  4449 4445 4446 ar   
  4450 4445 4452 1    
  4451 4446 4447 ar   
  4452 4446 4453 1    
  4453 4447 4448 ar   
  4454 4448 4449 ar   
  4455 4448 4454 1    
  4456 4449 4455 1    
  4457 4450 4451 1    
  4458 4451 4458 1    
  4459 4451 4460 1    
  4460 4451 4459 1    
  4461 4461 4467 1    
  4462 4461 4476 1    
  4463 4462 4470 2    
  4464 4463 4470 am   BACKBONE|DICT|INTERRES
  4465 4463 4464 1    
  4466 4463 4477 1    
  4467 4464 4469 ar   
  4468 4464 4465 ar   
  4469 4465 4472 1    
  4470 4465 4466 ar   
  4471 4466 4473 1    
  4472 4466 4467 ar   
  4473 4467 4468 ar   
  4474 4468 4474 1    
  4475 4468 4469 ar   
  4476 4469 4475 1    
  4477 4470 4471 1    
  4478 4471 4478 1    
  4479 4471 4480 1    
  4480 4471 4479 1    
  4481 4481 4496 1    
  4482 4481 4487 1    
  4483 4482 4490 2    
  4484 4483 4497 1    
  4485 4483 4490 am   BACKBONE|DICT|INTERRES
  4486 4483 4484 1    
  4487 4484 4485 ar   
  4488 4484 4489 ar   
  4489 4485 4492 1    
  4490 4485 4486 ar   
  4491 4486 4487 ar   
  4492 4486 4493 1    
  4493 4487 4488 ar   
  4494 4488 4489 ar   
  4495 4488 4494 1    
  4496 4489 4495 1    
  4497 4490 4491 1    
  4498 4491 4499 1    
  4499 4491 4498 1    
  4500 4491 4500 1    
  4501 4501 4516 1    
  4502 4501 4507 1    
  4503 4502 4510 2    
  4504 4503 4504 1    
  4505 4503 4517 1    
  4506 4503 4510 am   BACKBONE|DICT|INTERRES
  4507 4504 4505 ar   
  4508 4504 4509 ar   
  4509 4505 4506 ar   
  4510 4505 4512 1    
  4511 4506 4513 1    
  4512 4506 4507 ar   
  4513 4507 4508 ar   
  4514 4508 4514 1    
  4515 4508 4509 ar   
  4516 4509 4515 1    
  4517 4510 4511 1    
  4518 4511 4519 1    
  4519 4511 4518 1    
  4520 4511 4520 1    
  4521 4521 4536 1    
  4522 4521 4527 1    
  4523 4522 4530 2    
  4524 4523 4524 1    
  4525 4523 4537 1    
  4526 4523 4530 am   BACKBONE|DICT|INTERRES
  4527 4524 4529 ar   
  4528 4524 4525 ar   
  4529 4525 4526 ar   
  4530 4525 4532 1    
  4531 4526 4527 ar   
  4532 4526 4533 1    
  4533 4527 4528 ar   
  4534 4528 4529 ar   
  4535 4528 4534 1    
  4536 4529 4535 1    
  4537 4530 4531 1    
  4538 4531 4538 1    
  4539 4531 4540 1    
  4540 4531 4539 1    
  4541 4541 4547 1    
  4542 4541 4556 1    
  4543 4542 4550 2    
  4544 4543 4550 am   BACKBONE|DICT|INTERRES
  4545 4543 4544 1    
  4546 4543 4557 1    
  4547 4544 4549 ar   
  4548 4544 4545 ar   
  4549 4545 4552 1    
  4550 4545 4546 ar   
  4551 4546 4553 1    
  4552 4546 4547 ar   
  4553 4547 4548 ar   
  4554 4548 4554 1    
  4555 4548 4549 ar   
  4556 4549 4555 1    
  4557 4550 4551 1    
  4558 4551 4558 1    
  4559 4551 4560 1    
  4560 4551 4559 1    
  4561 4561 4576 1    
  4562 4561 4567 1    
  4563 4562 4570 2    
  4564 4563 4577 1    
  4565 4563 4570 am   BACKBONE|DICT|INTERRES
  4566 4563 4564 1    
  4567 4564 4565 ar   
  4568 4564 4569 ar   
  4569 4565 4572 1    
  4570 4565 4566 ar   
  4571 4566 4567 ar   
  4572 4566 4573 1    
  4573 4567 4568 ar   
  4574 4568 4569 ar   
  4575 4568 4574 1    
  4576 4569 4575 1    
  4577 4570 4571 1    
  4578 4571 4579 1    
  4579 4571 4578 1    
  4580 4571 4580 1    
  4581 4581 4596 1    
  4582 4581 4587 1    
  4583 4582 4590 2    
  4584 4583 4584 1    
  4585 4583 4597 1    
  4586 4583 4590 am   BACKBONE|DICT|INTERRES
  4587 4584 4585 ar   
  4588 4584 4589 ar   
  4589 4585 4586 ar   
  4590 4585 4592 1    
  4591 4586 4593 1    
  4592 4586 4587 ar   
  4593 4587 4588 ar   
  4594 4588 4594 1    
  4595 4588 4589 ar   
  4596 4589 4595 1    
  4597 4590 4591 1    
  4598 4591 4599 1    
  4599 4591 4598 1    
  4600 4591 4600 1    
  4601 4601 4616 1    
  4602 4601 4607 1    
  4603 4602 4610 2    
  4604 4603 4604 1    
  4605 4603 4617 1    
  4606 4603 4610 am   BACKBONE|DICT|INTERRES
  4607 4604 4609 ar   
  4608 4604 4605 ar   
  4609 4605 4606 ar   
  4610 4605 4612 1    
  4611 4606 4607 ar   
  4612 4606 4613 1    
  4613 4607 4608 ar   
  4614 4608 4609 ar   
  4615 4608 4614 1    
  4616 4609 4615 1    
  4617 4610 4611 1    
  4618 4611 4618 1    
  4619 4611 4620 1    
  4620 4611 4619 1    
  4621 4621 4627 1    
  4622 4621 4636 1    
  4623 4622 4630 2    
  4624 4623 4630 am   BACKBONE|DICT|INTERRES
  4625 4623 4624 1    
  4626 4623 4637 1    
  4627 4624 4629 ar   
  4628 4624 4625 ar   
  4629 4625 4632 1    
  4630 4625 4626 ar   
  4631 4626 4633 1    
  4632 4626 4627 ar   
  4633 4627 4628 ar   
  4634 4628 4634 1    
  4635 4628 4629 ar   
  4636 4629 4635 1    
  4637 4630 4631 1    
  4638 4631 4638 1    
  4639 4631 4640 1    
  4640 4631 4639 1    
  4641 4641 4656 1    
  4642 4641 4647 1    
  4643 4642 4650 2    
  4644 4643 4657 1    
  4645 4643 4650 am   BACKBONE|DICT|INTERRES
  4646 4643 4644 1    
  4647 4644 4645 ar   
  4648 4644 4649 ar   
  4649 4645 4652 1    
  4650 4645 4646 ar   
  4651 4646 4647 ar   
  4652 4646 4653 1    
  4653 4647 4648 ar   
  4654 4648 4649 ar   
  4655 4648 4654 1    
  4656 4649 4655 1    
  4657 4650 4651 1    
  4658 4651 4659 1    
  4659 4651 4658 1    
  4660 4651 4660 1    
  4661 4661 4676 1    
  4662 4661 4667 1    
  4663 4662 4670 2    
  4664 4663 4664 1    
  4665 4663 4677 1    
  4666 4663 4670 am   BACKBONE|DICT|INTERRES
  4667 4664 4665 ar   
  4668 4664 4669 ar   
  4669 4665 4666 ar   
  4670 4665 4672 1    
  4671 4666 4673 1    
  4672 4666 4667 ar   
  4673 4667 4668 ar   
  4674 4668 4674 1    
  4675 4668 4669 ar   
  4676 4669 4675 1    
  4677 4670 4671 1    
  4678 4671 4679 1    
  4679 4671 4678 1    
  4680 4671 4680 1    
  4681 4681 4696 1    
  4682 4681 4687 1    
  4683 4682 4690 2    
  4684 4683 4684 1    
  4685 4683 4697 1    
  4686 4683 4690 am   BACKBONE|DICT|INTERRES
  4687 4684 4689 ar   
  4688 4684 4685 ar   
  4689 4685 4686 ar   
  4690 4685 4692 1    
  4691 4686 4687 ar   
  4692 4686 4693 1    
  4693 4687 4688 ar   
  4694 4688 4689 ar   
  4695 4688 4694 1    
  4696 4689 4695 1    
  4697 4690 4691 1    
  4698 4691 4698 1    
  4699 4691 4700 1    
  4700 4691 4699 1    
  4701 4701 4707 1    
  4702 4701 4716 1    
  4703 4702 4710 2    
  4704 4703 4710 am   BACKBONE|DICT|INTERRES
  4705 4703 4704 1    
  4706 4703 4717 1    
  4707 4704 4709 ar   
  4708 4704 4705 ar   
  4709 4705 4712 1    
  4710 4705 4706 ar   
  4711 4706 4713 1    
  4712 4706 4707 ar   
  4713 4707 4708 ar   
  4714 4708 4714 1    
  4715 4708 4709 ar   
  4716 4709 4715 1    
  4717 4710 4711 1    
  4718 4711 4718 1    
  4719 4711 4720 1    
  4720 4711 4719 1    
  4721 4721 4736 1    
  4722 4721 4727 1    
  4723 4722 4730 2    
  4724 4723 4737 1    
  4725 4723 4730 am   BACKBONE|DICT|INTERRES
  4726 4723 4724 1    
  4727 4724 4725 ar   
  4728 4724 4729 ar   
  4729 4725 4732 1    
  4730 4725 4726 ar   
  4731 4726 4727 ar   
  4732 4726 4733 1    
  4733 4727 4728 ar   
  4734 4728 4729 ar   
  4735 4728 4734 1    
  4736 4729 4735 1    
  4737 4730 4731 1    
  4738 4731 4739 1    
  4739 4731 4738 1    
  4740 4731 4740 1    
  4741 4741 4756 1    
  4742 4741 4747 1    
  4743 4742 4750 2    
  4744 4743 4744 1    
  4745 4743 4757 1    
  4746 4743 4750 am   BACKBONE|DICT|INTERRES
  4747 4744 4745 ar   
  4748 4744 4749 ar   
  4749 4745 4746 ar   
  4750 4745 4752 1    
  4751 4746 4753 1    
  4752 4746 4747 ar   
  4753 4747 4748 ar   
  4754 4748 4754 1    
  4755 4748 4749 ar   
  4756 4749 4755 1    
  4757 4750 4751 1    
  4758 4751 4759 1    
  4759 4751 4758 1    
  4760 4751 4760 1    
  4761 4761 4776 1    
  4762 4761 4767 1    
  4763 4762 4770 2    
  4764 4763 4764 1    
  4765 4763 4777 1    
  4766 4763 4770 am   BACKBONE|DICT|INTERRES
  4767 4764 4769 ar   
  4768 4764 4765 ar   
  4769 4765 4766 ar   
  4770 4765 4772 1    
  4771 4766 4767 ar   
  4772 4766 4773 1    
  4773 4767 4768 ar   
  4774 4768 4769 ar   
  4775 4768 4774 1    
  4776 4769 4775 1    
  4777 4770 4771 1    
  4778 4771 4778 1    
  4779 4771 4780 1    
  4780 4771 4779 1    
  4781 4781 4787 1    
  4782 4781 4796 1    
  4783 4782 4790 2    
  4784 4783 4790 am   BACKBONE|DICT|INTERRES
  4785 4783 4784 1    
  4786 4783 4797 1    
  4787 4784 4789 ar   
  4788 4784 4785 ar   
  4789 4785 4792 1    
  4790 4785 4786 ar   
  4791 4786 4793 1    
  4792 4786 4787 ar   
  4793 4787 4788 ar   
  4794 4788 4794 1    
  4795 4788 4789 ar   
  4796 4789 4795 1    
  4797 4790 4791 1    
  4798 4791 4798 1    
  4799 4791 4800 1    
  4800 4791 4799 1    
  4801 4801 4816 1    
  4802 4801 4807 1    
  4803 4802 4810 2    
  4804 4803 4817 1    
  4805 4803 4810 am   BACKBONE|DICT|INTERRES
  4806 4803 4804 1    
  4807 4804 4805 ar   
  4808 4804 4809 ar   
  4809 4805 4812 1    
  4810 4805 4806 ar   
  4811 4806 4807 ar   
  4812 4806 4813 1    
  4813 4807 4808 ar   
  4814 4808 4809 ar   
  4815 4808 4814 1    
  4816 4809 4815 1    
  4817 4810 4811 1    
  4818 4811 4819 1    
  4819 4811 4818 1    
  4820 4811 4820 1    
  4821 4821 4836 1    
  4822 4821 4827 1    
  4823 4822 4830 2    
  4824 4823 4824 1    
  4825 4823 4837 1    
  4826 4823 4830 am   BACKBONE|DICT|INTERRES
  4827 4824 4825 ar   
  4828 4824 4829 ar   
  4829 4825 4826 ar   
  4830 4825 4832 1    
  4831 4826 4833 1    
  4832 4826 4827 ar   
  4833 4827 4828 ar   
  4834 4828 4834 1    
  4835 4828 4829 ar   
  4836 4829 4835 1    
  4837 4830 4831 1    
  4838 4831 4839 1    
  4839 4831 4838 1    
  4840 4831 4840 1    
  4841 4841 4856 1    
  4842 4841 4847 1    
  4843 4842 4850 2    
  4844 4843 4844 1    
  4845 4843 4857 1    
  4846 4843 4850 am   BACKBONE|DICT|INTERRES
  4847 4844 4849 ar   
  4848 4844 4845 ar   
  4849 4845 4846 ar   
  4850 4845 4852 1    
  4851 4846 4847 ar   
  4852 4846 4853 1    
  4853 4847 4848 ar   
  4854 4848 4849 ar   
  4855 4848 4854 1    
  4856 4849 4855 1    
  4857 4850 4851 1    
  4858 4851 4858 1    
  4859 4851 4860 1    
  4860 4851 4859 1    
  4861 4861 4867 1    
  4862 4861 4876 1    
  4863 4862 4870 2    
  4864 4863 4870 am   BACKBONE|DICT|INTERRES
  4865 4863 4864 1    
  4866 4863 4877 1    
  4867 4864 4869 ar   
  4868 4864 4865 ar   
  4869 4865 4872 1    
  4870 4865 4866 ar   
  4871 4866 4873 1    
  4872 4866 4867 ar   
  4873 4867 4868 ar   
  4874 4868 4874 1    
  4875 4868 4869 ar   
  4876 4869 4875 1    
  4877 4870 4871 1    
  4878 4871 4878 1    
  4879 4871 4880 1    
  4880 4871 4879 1    
  4881 4881 4896 1    
  4882 4881 4887 1    
  4883 4882 4890 2    
  4884 4883 4897 1    
  4885 4883 4890 am   BACKBONE|DICT|INTERRES
  4886 4883 4884 1    
  4887 4884 4885 ar   
  4888 4884 4889 ar   
  4889 4885 4892 1    
  4890 4885 4886 ar   
  4891 4886 4887 ar   
  4892 4886 4893 1    
  4893 4887 4888 ar   
  4894 4888 4889 ar   
  4895 4888 4894 1    
  4896 4889 4895 1    
  4897 4890 4891 1    
  4898 4891 4899 1    
  4899 4891 4898 1    
  4900 4891 4900 1    
  4901 4901 4916 1    
  4902 4901 4907 1    
  4903 4902 4910 2    
  4904 4903 4904 1    
  4905 4903 4917 1    
  4906 4903 4910 am   BACKBONE|DICT|INTERRES
  4907 4904 4905 ar   
  4908 4904 4909 ar   
  4909 4905 4906 ar   
  4910 4905 4912 1    
  4911 4906 4913 1    
  4912 4906 4907 ar   
  4913 4907 4908 ar   
  4914 4908 4914 1    
  4915 4908 4909 ar   
  4916 4909 4915 1    
  4917 4910 4911 1    
  4918 4911 4919 1    
  4919 4911 4918 1    
  4920 4911 4920 1    
  4921 4921 4936 1    
  4922 4921 4927 1    
  4923 4922 4930 2    
  4924 4923 4924 1    
  4925 4923 4937 1    
  4926 4923 4930 am   BACKBONE|DICT|INTERRES
  4927 4924 4929 ar   
  4928 4924 4925 ar   
  4929 4925 4926 ar   
  4930 4925 4932 1    
  4931 4926 4927 ar   
  4932 4926 4933 1    
  4933 4927 4928 ar   
  4934 4928 4929 ar   
  4935 4928 4934 1    
  4936 4929 4935 1    
  4937 4930 4931 1    
  4938 4931 4938 1    
  4939 4931 4940 1    
  4940 4931 4939 1    
  4941 4941 4947 1    
  4942 4941 4956 1    
  4943 4942 4950 2    
  4944 4943 4950 am   BACKBONE|DICT|INTERRES
  4945 4943 4944 1    
  4946 4943 4957 1    
  4947 4944 4949 ar   
  4948 4944 4945 ar   
  4949 4945 4952 1    
  4950 4945 4946 ar   
  4951 4946 4953 1    
  4952 4946 4947 ar   
  4953 4947 4948 ar   
  4954 4948 4954 1    
  4955 4948 4949 ar   
  4956 4949 4955 1    
  4957 4950 4951 1    
  4958 4951 4958 1    
  4959 4951 4960 1    
  4960 4951 4959 1    
  4961 4961 4976 1    
  4962 4961 4967 1    
  4963 4962 4970 2    
  4964 4963 4977 1    
  4965 4963 4970 am   BACKBONE|DICT|INTERRES
  4966 4963 4964 1    
  4967 4964 4965 ar   
  4968 4964 4969 ar   
  4969 4965 4972 1    
  4970 4965 4966 ar   
  4971 4966 4967 ar   
  4972 4966 4973 1    
  4973 4967 4968 ar   
  4974 4968 4969 ar   
  4975 4968 4974 1    
  4976 4969 4975 1    
  4977 4970 4971 1    
  4978 4971 4979 1    
  4979 4971 4978 1    
  4980 4971 4980 1    
  4981 4981 4996 1    
  4982 4981 4987 1    
  4983 4982 4990 2    
  4984 4983 4984 1    
  4985 4983 4997 1    
  4986 4983 4990 am   BACKBONE|DICT|INTERRES
  4987 4984 4985 ar   
  4988 4984 4989 ar   
  4989 4985 4986 ar   
  4990 4985 4992 1    
  4991 4986 4993 1    
  4992 4986 4987 ar   
  4993 4987 4988 ar   
  4994 4988 4994 1    
  4995 4988 4989 ar   
  4996 4989 4995 1    
  4997 4990 4991 1    
  4998 4991 4999 1    
  4999 4991 4998 1    
  5000 4991 5000 1    
  5001 5001 5016 1    
  5002 5001 5007 1    
  5003 5002 5010 2    
  5004 5003 5004 1    
  5005 5003 5017 1    
  5006 5003 5010 am   BACKBONE|DICT|INTERRES
  5007 5004 5009 ar   
  5008 5004 5005 ar   
  5009 5005 5006 ar   
  5010 5005 5012 1    
  5011 5006 5007 ar   
  5012 5006 5013 1    
  5013 5007 5008 ar   
  5014 5008 5009 ar   
  5015 5008 5014 1    
  5016 5009 5015 1    
  5017 5010 5011 1    
  5018 5011 5018 1    
  5019 5011 5020 1    
  5020 5011 5019 1    
  5021 5021 5027 1    
  5022 5021 5036 1    
  5023 5022 5030 2    
  5024 5023 5030 am   BACKBONE|DICT|INTERRES
  5025 5023 5024 1    
  5026 5023 5037 1    
  5027 5024 5029 ar   
  5028 5024 5025 ar   
  5029 5025 5032 1    
  5030 5025 5026 ar   
  5031 5026 5033 1    
  5032 5026 5027 ar   
  5033 5027 5028 ar   
  5034 5028 5034 1    
  5035 5028 5029 ar   
  5036 5029 5035 1    
  5037 5030 5031 1    
  5038 5031 5038 1    
  5039 5031 5040 1    
  5040 5031 5039 1    
  5041 5041 5056 1    
  5042 5041 5047 1    
  5043 5042 5050 2    
  5044 5043 5057 1    
  5045 5043 5050 am   BACKBONE|DICT|INTERRES
  5046 5043 5044 1    
  5047 5044 5045 ar   
  5048 5044 5049 ar   
  5049 5045 5052 1    
  5050 5045 5046 ar   
  5051 5046 5047 ar   
  5052 5046 5053 1    
  5053 5047 5048 ar   
  5054 5048 5049 ar   
  5055 5048 5054 1    
  5056 5049 5055 1    
  5057 5050 5051 1    
  5058 5051 5059 1    
  5059 5051 5058 1    
  5060 5051 5060 1    
  5061 5061 5076 1    
  5062 5061 5067 1    
  5063 5062 5070 2    
  5064 5063 5064 1    
  5065 5063 5077 1    
  5066 5063 5070 am   BACKBONE|DICT|INTERRES
  5067 5064 5065 ar   
  5068 5064 5069 ar   
  5069 5065 5066 ar   
  5070 5065 5072 1    
  5071 5066 5073 1    
  5072 5066 5067 ar   
  5073 5067 5068 ar   
  5074 5068 5074 1    
  5075 5068 5069 ar   
  5076 5069 5075 1    
  5077 5070 5071 1    
  5078 5071 5079 1    
  5079 5071 5078 1    
  5080 5071 5080 1    
  5081 5081 5096 1    
  5082 5081 5087 1    
  5083 5082 5090 2    
  5084 5083 5084 1    
  5085 5083 5097 1    
  5086 5083 5090 am   BACKBONE|DICT|INTERRES
  5087 5084 5089 ar   
  5088 5084 5085 ar   
  5089 5085 5086 ar   
  5090 5085 5092 1    
  5091 5086 5087 ar   
  5092 5086 5093 1    
  5093 5087 5088 ar   
  5094 5088 5089 ar   
  5095 5088 5094 1    
  5096 5089 5095 1    
  5097 5090 5091 1    
  5098 5091 5098 1    
  5099 5091 5100 1    
  5100 5091 5099 1    
  5101 5101 5107 1    
  5102 5101 5116 1    
  5103 5102 5110 2    
  5104 5103 5110 am   BACKBONE|DICT|INTERRES
  5105 5103 5104 1    
  5106 5103 5117 1    
  5107 5104 5109 ar   
  5108 5104 5105 ar   
  5109 5105 5112 1    
  5110 5105 5106 ar   
  5111 5106 5113 1    
  5112 5106 5107 ar   
  5113 5107 5108 ar   
  5114 5108 5114 1    
  5115 5108 5109 ar   
  5116 5109 5115 1    
  5117 5110 5111 1    
  5118 5111 5118 1    
  5119 5111 5120 1    
  5120 5111 5119 1    
  5121 5121 5136 1    
  5122 5121 5127 1    
  5123 5122 5130 2    
  5124 5123 5137 1    
  5125 5123 5130 am   BACKBONE|DICT|INTERRES
  5126 5123 5124 1    
  5127 5124 5125 ar   
  5128 5124 5129 ar   
  5129 5125 5132 1    
  5130 5125 5126 ar   
  5131 5126 5127 ar   
  5132 5126 5133 1    
  5133 5127 5128 ar   
  5134 5128 5129 ar   
  5135 5128 5134 1    
  5136 5129 5135 1    
  5137 5130 5131 1    
  5138 5131 5139 1    
  5139 5131 5138 1    
  5140 5131 5140 1    
  5141 5141 5156 1    
  5142 5141 5147 1    
  5143 5142 5150 2    
  5144 5143 5144 1    
  5145 5143 5157 1    
  5146 5143 5150 am   BACKBONE|DICT|INTERRES
  5147 5144 5145 ar   
  5148 5144 5149 ar   
  5149 5145 5146 ar   
  5150 5145 5152 1    
  5151 5146 5153 1    
  5152 5146 5147 ar   
  5153 5147 5148 ar   
  5154 5148 5154 1    
  5155 5148 5149 ar   
  5156 5149 5155 1    
  5157 5150 5151 1    
  5158 5151 5159 1    
  5159 5151 5158 1    
  5160 5151 5160 1    
  5161 5161 5176 1    
  5162 5161 5167 1    
  5163 5162 5170 2    
  5164 5163 5164 1    
  5165 5163 5177 1    
  5166 5163 5170 am   BACKBONE|DICT|INTERRES
  5167 5164 5169 ar   
  5168 5164 5165 ar   
  5169 5165 5166 ar   
  5170 5165 5172 1    
  5171 5166 5167 ar   
  5172 5166 5173 1    
  5173 5167 5168 ar   
  5174 5168 5169 ar   
  5175 5168 5174 1    
  5176 5169 5175 1    
  5177 5170 5171 1    
  5178 5171 5178 1    
  5179 5171 5180 1    
  5180 5171 5179 1    
  5181 5181 5187 1    
  5182 5181 5196 1    
  5183 5182 5190 2    
  5184 5183 5190 am   BACKBONE|DICT|INTERRES
  5185 5183 5184 1    
  5186 5183 5197 1    
  5187 5184 5189 ar   
  5188 5184 5185 ar   
  5189 5185 5192 1    
  5190 5185 5186 ar   
  5191 5186 5193 1    
  5192 5186 5187 ar   
  5193 5187 5188 ar   
  5194 5188 5194 1    
  5195 5188 5189 ar   
  5196 5189 5195 1    
  5197 5190 5191 1    
  5198 5191 5198 1    
  5199 5191 5200 1    
  5200 5191 5199 1    
  5201 5201 5216 1    
  5202 5201 5207 1    
  5203 5202 5210 2    
  5204 5203 5217 1    
  5205 5203 5210 am   BACKBONE|DICT|INTERRES
  5206 5203 5204 1    
  5207 5204 5205 ar   
  5208 5204 5209 ar   
  5209 5205 5212 1    
  5210 5205 5206 ar   
  5211 5206 5207 ar   
  5212 5206 5213 1    
  5213 5207 5208 ar   
  5214 5208 5209 ar   
  5215 5208 5214 1    
  5216 5209 5215 1    
  5217 5210 5211 1    
  5218 5211 5219 1    
  5219 5211 5218 1    
  5220 5211 5220 1    
  5221 5221 5236 1    
  5222 5221 5227 1    
  5223 5222 5230 2    
  5224 5223 5224 1    
  5225 5223 5237 1    
  5226 5223 5230 am   BACKBONE|DICT|INTERRES
  5227 5224 5225 ar   
  5228 5224 5229 ar   
  5229 5225 5226 ar   
  5230 5225 5232 1    
  5231 5226 5233 1    
  5232 5226 5227 ar   
  5233 5227 5228 ar   
  5234 5228 5234 1    
  5235 5228 5229 ar   
  5236 5229 5235 1    
  5237 5230 5231 1    
  5238 5231 5239 1    
  5239 5231 5238 1    
  5240 5231 5240 1    
  5241 5241 5256 1    
  5242 5241 5247 1    
  5243 5242 5250 2    
  5244 5243 5244 1    
  5245 5243 5257 1    
  5246 5243 5250 am   BACKBONE|DICT|INTERRES
  5247 5244 5249 ar   
  5248 5244 5245 ar   
  5249 5245 5246 ar   
  5250 5245 5252 1    
  5251 5246 5247 ar   
  5252 5246 5253 1    
  5253 5247 5248 ar   
  5254 5248 5249 ar   
  5255 5248 5254 1    
  5256 5249 5255 1    
  5257 5250 5251 1    
  5258 5251 5258 1    
  5259 5251 5260 1    
  5260 5251 5259 1    
  5261 5261 5267 1    
  5262 5261 5276 1    
  5263 5262 5270 2    
  5264 5263 5270 am   BACKBONE|DICT|INTERRES
  5265 5263 5264 1    
  5266 5263 5277 1    
  5267 5264 5269 ar   
  5268 5264 5265 ar   
  5269 5265 5272 1    
  5270 5265 5266 ar   
  5271 5266 5273 1    
  5272 5266 5267 ar   
  5273 5267 5268 ar   
  5274 5268 5274 1    
  5275 5268 5269 ar   
  5276 5269 5275 1    
  5277 5270 5271 1    
  5278 5271 5278 1    
  5279 5271 5280 1    
  5280 5271 5279 1    
  5281 5281 5296 1    
  5282 5281 5287 1    
  5283 5282 5290 2    
  5284 5283 5297 1    
  5285 5283 5290 am   BACKBONE|DICT|INTERRES
  5286 5283 5284 1    
  5287 5284 5285 ar   
  5288 5284 5289 ar   
  5289 5285 5292 1    
  5290 5285 5286 ar   
  5291 5286 5287 ar   
  5292 5286 5293 1    
  5293 5287 5288 ar   
  5294 5288 5289 ar   
  5295 5288 5294 1    
  5296 5289 5295 1    
  5297 5290 5291 1    
  5298 5291 5299 1    
  5299 5291 5298 1    
  5300 5291 5300 1    
  5301 5301 5316 1    
  5302 5301 5307 1    
  5303 5302 5310 2    
  5304 5303 5304 1    
  5305 5303 5317 1    
  5306 5303 5310 am   BACKBONE|DICT|INTERRES
  5307 5304 5305 ar   
  5308 5304 5309 ar   
  5309 5305 5306 ar   
  5310 5305 5312 1    
  5311 5306 5313 1    
  5312 5306 5307 ar   
  5313 5307 5308 ar   
  5314 5308 5314 1    
  5315 5308 5309 ar   
  5316 5309 5315 1    
  5317 5310 5311 1    
  5318 5311 5319 1    
  5319 5311 5318 1    
  5320 5311 5320 1    
  5321 5321 5336 1    
  5322 5321 5327 1    
  5323 5322 5330 2    
  5324 5323 5324 1    
  5325 5323 5337 1    
  5326 5323 5330 am   BACKBONE|DICT|INTERRES
  5327 5324 5329 ar   
  5328 5324 5325 ar   
  5329 5325 5326 ar   
  5330 5325 5332 1    
  5331 5326 5327 ar   
  5332 5326 5333 1    
  5333 5327 5328 ar   
  5334 5328 5329 ar   
  5335 5328 5334 1    
  5336 5329 5335 1    
  5337 5330 5331 1    
  5338 5331 5338 1    
  5339 5331 5340 1    
  5340 5331 5339 1    
  5341 5341 5347 1    
  5342 5341 5356 1    
  5343 5342 5350 2    
  5344 5343 5350 am   BACKBONE|DICT|INTERRES
  5345 5343 5344 1    
  5346 5343 5357 1    
  5347 5344 5349 ar   
  5348 5344 5345 ar   
  5349 5345 5352 1    
  5350 5345 5346 ar   
  5351 5346 5353 1    
  5352 5346 5347 ar   
  5353 5347 5348 ar   
  5354 5348 5354 1    
  5355 5348 5349 ar   
  5356 5349 5355 1    
  5357 5350 5351 1    
  5358 5351 5358 1    
  5359 5351 5360 1    
  5360 5351 5359 1    
  5361 5361 5376 1    
  5362 5361 5367 1    
  5363 5362 5370 2    
  5364 5363 5377 1    
  5365 5363 5370 am   BACKBONE|DICT|INTERRES
  5366 5363 5364 1    
  5367 5364 5365 ar   
  5368 5364 5369 ar   
  5369 5365 5372 1    
  5370 5365 5366 ar   
  5371 5366 5367 ar   
  5372 5366 5373 1    
  5373 5367 5368 ar   
  5374 5368 5369 ar   
  5375 5368 5374 1    
  5376 5369 5375 1    
  5377 5370 5371 1    
  5378 5371 5379 1    
  5379 5371 5378 1    
  5380 5371 5380 1    
  5381 5381 5396 1    
  5382 5381 5387 1    
  5383 5382 5390 2    
  5384 5383 5384 1    
  5385 5383 5397 1    
  5386 5383 5390 am   BACKBONE|DICT|INTERRES
  5387 5384 5385 ar   
  5388 5384 5389 ar   
  5389 5385 5386 ar   
  5390 5385 5392 1    
  5391 5386 5393 1    
  5392 5386 5387 ar   
  5393 5387 5388 ar   
  5394 5388 5394 1    
  5395 5388 5389 ar   
  5396 5389 5395 1    
  5397 5390 5391 1    
  5398 5391 5399 1    
  5399 5391 5398 1    
  5400 5391 5400 1    
  5401 5401 5416 1    
  5402 5401 5407 1    
  5403 5402 5410 2    
  5404 5403 5404 1    
  5405 5403 5417 1    
  5406 5403 5410 am   BACKBONE|DICT|INTERRES
  5407 5404 5409 ar   
  5408 5404 5405 ar   
  5409 5405 5406 ar   
  5410 5405 5412 1    
  5411 5406 5407 ar   
  5412 5406 5413 1    
  5413 5407 5408 ar   
  5414 5408 5409 ar   
  5415 5408 5414 1    
  5416 5409 5415 1    
  5417 5410 5411 1    
  5418 5411 5418 1    
  5419 5411 5420 1    
  5420 5411 5419 1    
  5421 5421 5427 1    
  5422 5421 5436 1    
  5423 5422 5430 2    
  5424 5423 5430 am   BACKBONE|DICT|INTERRES
  5425 5423 5424 1    
  5426 5423 5437 1    
  5427 5424 5429 ar   
  5428 5424 5425 ar   
  5429 5425 5432 1    
  5430 5425 5426 ar   
  5431 5426 5433 1    
  5432 5426 5427 ar   
  5433 5427 5428 ar   
  5434 5428 5434 1    
  5435 5428 5429 ar   
  5436 5429 5435 1    
  5437 5430 5431 1    
  5438 5431 5438 1    
  5439 5431 5440 1    
  5440 5431 5439 1    
  5441 5441 5456 1    
  5442 5441 5447 1    
  5443 5442 5450 2    
  5444 5443 5457 1    
  5445 5443 5450 am   BACKBONE|DICT|INTERRES
  5446 5443 5444 1    
  5447 5444 5445 ar   
  5448 5444 5449 ar   
  5449 5445 5452 1    
  5450 5445 5446 ar   
  5451 5446 5447 ar   
  5452 5446 5453 1    
  5453 5447 5448 ar   
  5454 5448 5449 ar   
  5455 5448 5454 1    
  5456 5449 5455 1    
  5457 5450 5451 1    
  5458 5451 5459 1    
  5459 5451 5458 1    
  5460 5451 5460 1    
  5461 5461 5476 1    
  5462 5461 5467 1    
  5463 5462 5470 2    
  5464 5463 5464 1    
  5465 5463 5477 1    
  5466 5463 5470 am   BACKBONE|DICT|INTERRES
  5467 5464 5465 ar   
  5468 5464 5469 ar   
  5469 5465 5466 ar   
  5470 5465 5472 1    
  5471 5466 5473 1    
  5472 5466 5467 ar   
  5473 5467 5468 ar   
  5474 5468 5474 1    
  5475 5468 5469 ar   
  5476 5469 5475 1    
  5477 5470 5471 1    
  5478 5471 5479 1    
  5479 5471 5478 1    
  5480 5471 5480 1    
  5481 5481 5496 1    
  5482 5481 5487 1    
  5483 5482 5490 2    
  5484 5483 5484 1    
  5485 5483 5497 1    
  5486 5483 5490 am   BACKBONE|DICT|INTERRES
  5487 5484 5489 ar   
  5488 5484 5485 ar   
  5489 5485 5486 ar   
  5490 5485 5492 1    
  5491 5486 5487 ar   
  5492 5486 5493 1    
  5493 5487 5488 ar   
  5494 5488 5489 ar   
  5495 5488 5494 1    
  5496 5489 5495 1    
  5497 5490 5491 1    
  5498 5491 5498 1    
  5499 5491 5500 1    
  5500 5491 5499 1    
  5501 5501 5507 1    
  5502 5501 5516 1    
  5503 5502 5510 2    
  5504 5503 5510 am   BACKBONE|DICT|INTERRES
  5505 5503 5504 1    
  5506 5503 5517 1    
  5507 5504 5509 ar   
  5508 5504 5505 ar   
  5509 5505 5512 1    
  5510 5505 5506 ar   
  5511 5506 5513 1    
  5512 5506 5507 ar   
  5513 5507 5508 ar   
  5514 5508 5514 1    
  5515 5508 5509 ar   
  5516 5509 5515 1    
  5517 5510 5511 1    
  5518 5511 5518 1    
  5519 5511 5520 1    
  5520 5511 5519 1    
  5521 5521 5536 1    
  5522 5521 5527 1    
  5523 5522 5530 2    
  5524 5523 5537 1    
  5525 5523 5530 am   BACKBONE|DICT|INTERRES
  5526 5523 5524 1    
  5527 5524 5525 ar   
  5528 5524 5529 ar   
  5529 5525 5532 1    
  5530 5525 5526 ar   
  5531 5526 5527 ar   
  5532 5526 5533 1    
  5533 5527 5528 ar   
  5534 5528 5529 ar   
  5535 5528 5534 1    
  5536 5529 5535 1    
  5537 5530 5531 1    
  5538 5531 5539 1    
  5539 5531 5538 1    
  5540 5531 5540 1    
  5541 5541 5556 1    
  5542 5541 5547 1    
  5543 5542 5550 2    
  5544 5543 5544 1    
  5545 5543 5557 1    
  5546 5543 5550 am   BACKBONE|DICT|INTERRES
  5547 5544 5545 ar   
  5548 5544 5549 ar   
  5549 5545 5546 ar   
  5550 5545 5552 1    
  5551 5546 5553 1    
  5552 5546 5547 ar   
  5553 5547 5548 ar   
  5554 5548 5554 1    
  5555 5548 5549 ar   
  5556 5549 5555 1    
  5557 5550 5551 1    
  5558 5551 5559 1    
  5559 5551 5558 1    
  5560 5551 5560 1    
  5561 5561 5576 1    
  5562 5561 5567 1    
  5563 5562 5570 2    
  5564 5563 5564 1    
  5565 5563 5577 1    
  5566 5563 5570 am   BACKBONE|DICT|INTERRES
  5567 5564 5569 ar   
  5568 5564 5565 ar   
  5569 5565 5566 ar   
  5570 5565 5572 1    
  5571 5566 5567 ar   
  5572 5566 5573 1    
  5573 5567 5568 ar   
  5574 5568 5569 ar   
  5575 5568 5574 1    
  5576 5569 5575 1    
  5577 5570 5571 1    
  5578 5571 5578 1    
  5579 5571 5580 1    
  5580 5571 5579 1    
  5581 5581 5587 1    
  5582 5581 5596 1    
  5583 5582 5590 2    
  5584 5583 5590 am   BACKBONE|DICT|INTERRES
  5585 5583 5584 1    
  5586 5583 5597 1    
  5587 5584 5589 ar   
  5588 5584 5585 ar   
  5589 5585 5592 1    
  5590 5585 5586 ar   
  5591 5586 5593 1    
  5592 5586 5587 ar   
  5593 5587 5588 ar   
  5594 5588 5594 1    
  5595 5588 5589 ar   
  5596 5589 5595 1    
  5597 5590 5591 1    
  5598 5591 5598 1    
  5599 5591 5600 1    
  5600 5591 5599 1    
  5601 5601 5616 1    
  5602 5601 5607 1    
  5603 5602 5610 2    
  5604 5603 5617 1    
  5605 5603 5610 am   BACKBONE|DICT|INTERRES
  5606 5603 5604 1    
  5607 5604 5605 ar   
  5608 5604 5609 ar   
  5609 5605 5612 1    
  5610 5605 5606 ar   
  5611 5606 5607 ar   
  5612 5606 5613 1    
  5613 5607 5608 ar   
  5614 5608 5609 ar   
  5615 5608 5614 1    
  5616 5609 5615 1    
  5617 5610 5611 1    
  5618 5611 5619 1    
  5619 5611 5618 1    
  5620 5611 5620 1    
  5621 5621 5636 1    
  5622 5621 5627 1    
  5623 5622 5630 2    
  5624 5623 5624 1    
  5625 5623 5637 1    
  5626 5623 5630 am   BACKBONE|DICT|INTERRES
  5627 5624 5625 ar   
  5628 5624 5629 ar   
  5629 5625 5626 ar   
  5630 5625 5632 1    
  5631 5626 5633 1    
  5632 5626 5627 ar   
  5633 5627 5628 ar   
  5634 5628 5634 1    
  5635 5628 5629 ar   
  5636 5629 5635 1    
  5637 5630 5631 1    
  5638 5631 5639 1    
  5639 5631 5638 1    
  5640 5631 5640 1    
  5641 5641 5656 1    
  5642 5641 5647 1    
  5643 5642 5650 2    
  5644 5643 5644 1    
  5645 5643 5657 1    
  5646 5643 5650 am   BACKBONE|DICT|INTERRES
  5647 5644 5649 ar   
  5648 5644 5645 ar   
  5649 5645 5646 ar   
  5650 5645 5652 1    
  5651 5646 5647 ar   
  5652 5646 5653 1    
  5653 5647 5648 ar   
  5654 5648 5649 ar   
  5655 5648 5654 1    
  5656 5649 5655 1    
  5657 5650 5651 1    
  5658 5651 5658 1    
  5659 5651 5660 1    
  5660 5651 5659 1    
  5661 5661 5667 1    
  5662 5661 5676 1    
  5663 5662 5670 2    
  5664 5663 5670 am   BACKBONE|DICT|INTERRES
  5665 5663 5664 1    
  5666 5663 5677 1    
  5667 5664 5669 ar   
  5668 5664 5665 ar   
  5669 5665 5672 1    
  5670 5665 5666 ar   
  5671 5666 5673 1    
  5672 5666 5667 ar   
  5673 5667 5668 ar   
  5674 5668 5674 1    
  5675 5668 5669 ar   
  5676 5669 5675 1    
  5677 5670 5671 1    
  5678 5671 5678 1    
  5679 5671 5680 1    
  5680 5671 5679 1    
  5681 5681 5696 1    
  5682 5681 5687 1    
  5683 5682 5690 2    
  5684 5683 5697 1    
  5685 5683 5690 am   BACKBONE|DICT|INTERRES
  5686 5683 5684 1    
  5687 5684 5685 ar   
  5688 5684 5689 ar   
  5689 5685 5692 1    
  5690 5685 5686 ar   
  5691 5686 5687 ar   
  5692 5686 5693 1    
  5693 5687 5688 ar   
  5694 5688 5689 ar   
  5695 5688 5694 1    
  5696 5689 5695 1    
  5697 5690 5691 1    
  5698 5691 5699 1    
  5699 5691 5698 1    
  5700 5691 5700 1    
  5701 5701 5716 1    
  5702 5701 5707 1    
  5703 5702 5710 2    
  5704 5703 5704 1    
  5705 5703 5717 1    
  5706 5703 5710 am   BACKBONE|DICT|INTERRES
  5707 5704 5705 ar   
  5708 5704 5709 ar   
  5709 5705 5706 ar   
  5710 5705 5712 1    
  5711 5706 5713 1    
  5712 5706 5707 ar   
  5713 5707 5708 ar   
  5714 5708 5714 1    
  5715 5708 5709 ar   
  5716 5709 5715 1    
  5717 5710 5711 1    
  5718 5711 5719 1    
  5719 5711 5718 1    
  5720 5711 5720 1    
  5721 5721 5736 1    
  5722 5721 5727 1    
  5723 5722 5730 2    
  5724 5723 5724 1    
  5725 5723 5737 1    
  5726 5723 5730 am   BACKBONE|DICT|INTERRES
  5727 5724 5729 ar   
  5728 5724 5725 ar   
  5729 5725 5726 ar   
  5730 5725 5732 1    
  5731 5726 5727 ar   
  5732 5726 5733 1    
  5733 5727 5728 ar   
  5734 5728 5729 ar   
  5735 5728 5734 1    
  5736 5729 5735 1    
  5737 5730 5731 1    
  5738 5731 5738 1    
  5739 5731 5740 1    
  5740 5731 5739 1    
  5741 5741 5747 1    
  5742 5741 5756 1    
  5743 5742 5750 2    
  5744 5743 5750 am   BACKBONE|DICT|INTERRES
  5745 5743 5744 1    
  5746 5743 5757 1    
  5747 5744 5749 ar   
  5748 5744 5745 ar   
  5749 5745 5752 1    
  5750 5745 5746 ar   
  5751 5746 5753 1    
  5752 5746 5747 ar   
  5753 5747 5748 ar   
  5754 5748 5754 1    
  5755 5748 5749 ar   
  5756 5749 5755 1    
  5757 5750 5751 1    
  5758 5751 5758 1    
  5759 5751 5760 1    
  5760 5751 5759 1    
  5761 5761 5776 1    
  5762 5761 5767 1    
  5763 5762 5770 2    
  5764 5763 5777 1    
  5765 5763 5770 am   BACKBONE|DICT|INTERRES
  5766 5763 5764 1    
  5767 5764 5765 ar   
  5768 5764 5769 ar   
  5769 5765 5772 1    
  5770 5765 5766 ar   
  5771 5766 5767 ar   
  5772 5766 5773 1    
  5773 5767 5768 ar   
  5774 5768 5769 ar   
  5775 5768 5774 1    
  5776 5769 5775 1    
  5777 5770 5771 1    
  5778 5771 5779 1    
  5779 5771 5778 1    
  5780 5771 5780 1    
  5781 5781 5796 1    
  5782 5781 5787 1    
  5783 5782 5790 2    
  5784 5783 5784 1    
  5785 5783 5797 1    
  5786 5783 5790 am   BACKBONE|DICT|INTERRES
  5787 5784 5785 ar   
  5788 5784 5789 ar   
  5789 5785 5786 ar   
  5790 5785 5792 1    
  5791 5786 5793 1    
  5792 5786 5787 ar   
  5793 5787 5788 ar   
  5794 5788 5794 1    
  5795 5788 5789 ar   
  5796 5789 5795 1    
  5797 5790 5791 1    
  5798 5791 5799 1    
  5799 5791 5798 1    
  5800 5791 5800 1    
  5801 5801 5816 1    
  5802 5801 5807 1    
  5803 5802 5810 2    
  5804 5803 5804 1    
  5805 5803 5817 1    
  5806 5803 5810 am   BACKBONE|DICT|INTERRES
  5807 5804 5809 ar   
  5808 5804 5805 ar   
  5809 5805 5806 ar   
  5810 5805 5812 1    
  5811 5806 5807 ar   
  5812 5806 5813 1    
  5813 5807 5808 ar   
  5814 5808 5809 ar   
  5815 5808 5814 1    
  5816 5809 5815 1    
  5817 5810 5811 1    
  5818 5811 5818 1    
  5819 5811 5820 1    
  5820 5811 5819 1    
  5821 5821 5827 1    
  5822 5821 5836 1    
  5823 5822 5830 2    
  5824 5823 5830 am   BACKBONE|DICT|INTERRES
  5825 5823 5824 1    
  5826 5823 5837 1    
  5827 5824 5829 ar   
  5828 5824 5825 ar   
  5829 5825 5832 1    
  5830 5825 5826 ar   
  5831 5826 5833 1    
  5832 5826 5827 ar   
  5833 5827 5828 ar   
  5834 5828 5834 1    
  5835 5828 5829 ar   
  5836 5829 5835 1    
  5837 5830 5831 1    
  5838 5831 5838 1    
  5839 5831 5840 1    
  5840 5831 5839 1    
  5841 5841 5856 1    
  5842 5841 5847 1    
  5843 5842 5850 2    
  5844 5843 5857 1    
  5845 5843 5850 am   BACKBONE|DICT|INTERRES
  5846 5843 5844 1    
  5847 5844 5845 ar   
  5848 5844 5849 ar   
  5849 5845 5852 1    
  5850 5845 5846 ar   
  5851 5846 5847 ar   
  5852 5846 5853 1    
  5853 5847 5848 ar   
  5854 5848 5849 ar   
  5855 5848 5854 1    
  5856 5849 5855 1    
  5857 5850 5851 1    
  5858 5851 5859 1    
  5859 5851 5858 1    
  5860 5851 5860 1    
  5861 5861 5876 1    
  5862 5861 5867 1    
  5863 5862 5870 2    
  5864 5863 5864 1    
  5865 5863 5877 1    
  5866 5863 5870 am   BACKBONE|DICT|INTERRES
  5867 5864 5865 ar   
  5868 5864 5869 ar   
  5869 5865 5866 ar   
  5870 5865 5872 1    
  5871 5866 5873 1    
  5872 5866 5867 ar   
  5873 5867 5868 ar   
  5874 5868 5874 1    
  5875 5868 5869 ar   
  5876 5869 5875 1    
  5877 5870 5871 1    
  5878 5871 5879 1    
  5879 5871 5878 1    
  5880 5871 5880 1    
  5881 5881 5896 1    
  5882 5881 5887 1    
  5883 5882 5890 2    
  5884 5883 5884 1    
  5885 5883 5897 1    
  5886 5883 5890 am   BACKBONE|DICT|INTERRES
  5887 5884 5889 ar   
  5888 5884 5885 ar   
  5889 5885 5886 ar   
  5890 5885 5892 1    
  5891 5886 5887 ar   
  5892 5886 5893 1    
  5893 5887 5888 ar   
  5894 5888 5889 ar   
  5895 5888 5894 1    
  5896 5889 5895 1    
  5897 5890 5891 1    
  5898 5891 5898 1    
  5899 5891 5900 1    
  5900 5891 5899 1    
  5901 5901 5907 1    
  5902 5901 5916 1    
  5903 5902 5910 2    
  5904 5903 5910 am   BACKBONE|DICT|INTERRES
  5905 5903 5904 1    
  5906 5903 5917 1    
  5907 5904 5909 ar   
  5908 5904 5905 ar   
  5909 5905 5912 1    
  5910 5905 5906 ar   
  5911 5906 5913 1    
  5912 5906 5907 ar   
  5913 5907 5908 ar   
  5914 5908 5914 1    
  5915 5908 5909 ar   
  5916 5909 5915 1    
  5917 5910 5911 1    
  5918 5911 5918 1    
  5919 5911 5920 1    
  5920 5911 5919 1    
  5921 5921 5936 1    
  5922 5921 5927 1    
  5923 5922 5930 2    
  5924 5923 5937 1    
  5925 5923 5930 am   BACKBONE|DICT|INTERRES
  5926 5923 5924 1    
  5927 5924 5925 ar   
  5928 5924 5929 ar   
  5929 5925 5932 1    
  5930 5925 5926 ar   
  5931 5926 5927 ar   
  5932 5926 5933 1    
  5933 5927 5928 ar   
  5934 5928 5929 ar   
  5935 5928 5934 1    
  5936 5929 5935 1    
  5937 5930 5931 1    
  5938 5931 5939 1    
  5939 5931 5938 1    
  5940 5931 5940 1    
  5941 5941 5956 1    
  5942 5941 5947 1    
  5943 5942 5950 2    
  5944 5943 5944 1    
  5945 5943 5957 1    
  5946 5943 5950 am   BACKBONE|DICT|INTERRES
  5947 5944 5945 ar   
  5948 5944 5949 ar   
  5949 5945 5946 ar   
  5950 5945 5952 1    
  5951 5946 5953 1    
  5952 5946 5947 ar   
  5953 5947 5948 ar   
  5954 5948 5954 1    
  5955 5948 5949 ar   
  5956 5949 5955 1    
  5957 5950 5951 1    
  5958 5951 5959 1    
  5959 5951 5958 1    
  5960 5951 5960 1    
  5961 5961 5976 1    
  5962 5961 5967 1    
  5963 5962 5970 2    
  5964 5963 5964 1    
  5965 5963 5977 1    
  5966 5963 5970 am   BACKBONE|DICT|INTERRES
  5967 5964 5969 ar   
  5968 5964 5965 ar   
  5969 5965 5966 ar   
  5970 5965 5972 1    
  5971 5966 5967 ar   
  5972 5966 5973 1    
  5973 5967 5968 ar   
  5974 5968 5969 ar   
  5975 5968 5974 1    
  5976 5969 5975 1    
  5977 5970 5971 1    
  5978 5971 5978 1    
  5979 5971 5980 1    
  5980 5971 5979 1    
  5981 5981 5987 1    
  5982 5981 5996 1    
  5983 5982 5990 2    
  5984 5983 5990 am   BACKBONE|DICT|INTERRES
  5985 5983 5984 1    
  5986 5983 5997 1    
  5987 5984 5989 ar   
  5988 5984 5985 ar   
  5989 5985 5992 1    
  5990 5985 5986 ar   
  5991 5986 5993 1    
  5992 5986 5987 ar   
  5993 5987 5988 ar   
  5994 5988 5994 1    
  5995 5988 5989 ar   
  5996 5989 5995 1    
  5997 5990 5991 1    
  5998 5991 5998 1    
  5999 5991 6000 1    
  6000 5991 5999 1    
@<TRIPOS>SUBSTRUCTURE
     1 UNK         1 GROUP             0       ****    0 ROOT    
