@<TRIPOS>MOLECULE
substrate-1_0_0
8640   8640    1
SMALL
USER_CHARGES


@<TRIPOS>ATOM
      1 O(1)        9.1737    0.6998    8.9648 O.3       1 UNK         0.0000
      2 O(2)        4.1998    4.6443    7.6380 O.2       1 UNK         0.0000
      3 N(1)        4.8508    4.1200    9.7497 N.am      1 UNK         0.0000
      4 C(1)        5.9581    3.2801    9.4956 C.ar      1 UNK         0.0000
      5 C(2)        6.6810    3.2782    8.3028 C.ar      1 UNK         0.0000
      6 C(3)        7.7586    2.4115    8.1462 C.ar      1 UNK         0.0000
      7 C(4)        8.1290    1.5493    9.1751 C.ar      1 UNK         0.0000
      8 C(5)        7.4256    1.5730   10.3788 C.ar      1 UNK         0.0000
      9 C(6)        6.3478    2.4330   10.5337 C.ar      1 UNK         0.0000
     10 C(7)        4.0435    4.7222    8.8614 C.2       1 UNK         0.0000
     11 C(8)        2.9200    5.5237    9.4624 C.3       1 UNK         0.0000
     12 H(1)        6.4025    3.9410    7.4929 H         1 UNK         0.0000
     13 H(2)        8.3054    2.4222    7.2113 H         1 UNK         0.0000
     14 H(3)        7.7186    0.9172   11.1894 H         1 UNK         0.0000
     15 H(4)        5.8009    2.4494   11.4683 H         1 UNK         0.0000
     16 H(5)        9.4980    0.3452    9.8016 H         1 UNK         0.0000
     17 H(6)        4.5923    4.2150   10.7204 H         1 UNK         0.0000
     18 H(7)        3.1385    6.5542    9.3531 H         1 UNK         0.0000
     19 H(8)        2.7683    5.3165   10.4898 H         1 UNK         0.0000
     20 H(9)        2.0395    5.3593    8.8976 H         1 UNK         0.0000
     21 O(1)       -0.9549   -3.8867   14.7654 O.3       1 UNK         0.0000
     22 O(2)        4.0190    0.0578   16.0922 O.2       1 UNK         0.0000
     23 N(1)        3.3679   -0.4665   13.9805 N.am      1 UNK         0.0000
     24 C(1)        2.2606   -1.3064   14.2346 C.ar      1 UNK         0.0000
     25 C(2)        1.5378   -1.3083   15.4274 C.ar      1 UNK         0.0000
     26 C(3)        0.4601   -2.1750   15.5840 C.ar      1 UNK         0.0000
     27 C(4)        0.0898   -3.0372   14.5551 C.ar      1 UNK         0.0000
     28 C(5)        0.7931   -3.0135   13.3514 C.ar      1 UNK         0.0000
     29 C(6)        1.8709   -2.1535   13.1965 C.ar      1 UNK         0.0000
     30 C(7)        4.1753    0.1357   14.8687 C.2       1 UNK         0.0000
     31 C(8)        5.2987    0.9372   14.2678 C.3       1 UNK         0.0000
     32 H(1)        1.8162   -0.6455   16.2373 H         1 UNK         0.0000
     33 H(2)       -0.0867   -2.1643   16.5188 H         1 UNK         0.0000
     34 H(3)        0.5002   -3.6693   12.5408 H         1 UNK         0.0000
     35 H(4)        2.4179   -2.1371   12.2618 H         1 UNK         0.0000
     36 H(5)       -1.2793   -4.2413   13.9286 H         1 UNK         0.0000
     37 H(6)        3.6264   -0.3715   13.0098 H         1 UNK         0.0000
     38 H(7)        5.0803    1.9677   14.3771 H         1 UNK         0.0000
     39 H(8)        5.4505    0.7300   13.2404 H         1 UNK         0.0000
     40 H(9)        6.1792    0.7728   14.8326 H         1 UNK         0.0000
     41 O(1)        3.3730    8.4732    4.2507 O.3       1 UNK         0.0000
     42 O(2)        8.3469    4.5287    5.5774 O.2       1 UNK         0.0000
     43 N(1)        7.6959    5.0530    3.4657 N.am      1 UNK         0.0000
     44 C(1)        6.5885    5.8929    3.7198 C.ar      1 UNK         0.0000
     45 C(2)        5.8657    5.8948    4.9126 C.ar      1 UNK         0.0000
     46 C(3)        4.7881    6.7615    5.0693 C.ar      1 UNK         0.0000
     47 C(4)        4.4177    7.6237    4.0404 C.ar      1 UNK         0.0000
     48 C(5)        5.1211    7.6000    2.8367 C.ar      1 UNK         0.0000
     49 C(6)        6.1989    6.7400    2.6817 C.ar      1 UNK         0.0000
     50 C(7)        8.5032    4.4508    4.3540 C.2       1 UNK         0.0000
     51 C(8)        9.6267    3.6493    3.7530 C.3       1 UNK         0.0000
     52 H(1)        6.1442    5.2320    5.7226 H         1 UNK         0.0000
     53 H(2)        4.2413    6.7508    6.0041 H         1 UNK         0.0000
     54 H(3)        4.8281    8.2558    2.0261 H         1 UNK         0.0000
     55 H(4)        6.7458    6.7236    1.7471 H         1 UNK         0.0000
     56 H(5)        3.0487    8.8278    3.4139 H         1 UNK         0.0000
     57 H(6)        7.9544    4.9580    2.4950 H         1 UNK         0.0000
     58 H(7)        9.4082    2.6188    3.8623 H         1 UNK         0.0000
     59 H(8)        9.7784    3.8565    2.7256 H         1 UNK         0.0000
     60 H(9)       10.5072    3.8137    4.3178 H         1 UNK         0.0000
     61 O(1)        2.9003    3.8867    5.4598 O.3       1 UNK         0.0000
     62 O(2)       -2.0736   -0.0578    4.1331 O.2       1 UNK         0.0000
     63 N(1)       -1.4225    0.4665    6.2448 N.am      1 UNK         0.0000
     64 C(1)       -0.3152    1.3064    5.9907 C.ar      1 UNK         0.0000
     65 C(2)        0.4076    1.3083    4.7979 C.ar      1 UNK         0.0000
     66 C(3)        1.4853    2.1750    4.6412 C.ar      1 UNK         0.0000
     67 C(4)        1.8556    3.0372    5.6701 C.ar      1 UNK         0.0000
     68 C(5)        1.1523    3.0135    6.8738 C.ar      1 UNK         0.0000
     69 C(6)        0.0744    2.1535    7.0288 C.ar      1 UNK         0.0000
     70 C(7)       -2.2299   -0.1357    5.3565 C.2       1 UNK         0.0000
     71 C(8)       -3.3533   -0.9372    5.9575 C.3       1 UNK         0.0000
     72 H(1)        0.1292    0.6455    3.9879 H         1 UNK         0.0000
     73 H(2)        2.0321    2.1643    3.7064 H         1 UNK         0.0000
     74 H(3)        1.4452    3.6693    7.6844 H         1 UNK         0.0000
     75 H(4)       -0.4725    2.1371    7.9634 H         1 UNK         0.0000
     76 H(5)        3.2247    4.2413    6.2966 H         1 UNK         0.0000
     77 H(6)       -1.6810    0.3715    7.2155 H         1 UNK         0.0000
     78 H(7)       -3.1349   -1.9677    5.8482 H         1 UNK         0.0000
     79 H(8)       -3.5051   -0.7300    6.9849 H         1 UNK         0.0000
     80 H(9)       -4.2339   -0.7728    5.3927 H         1 UNK         0.0000
     81 O(1)       10.1464    0.6998   15.9746 O.3       1 UNK         0.0000
     82 O(2)        5.1725    4.6443   14.6478 O.2       1 UNK         0.0000
     83 N(1)        5.8235    4.1200   16.7595 N.am      1 UNK         0.0000
     84 C(1)        6.9308    3.2801   16.5055 C.ar      1 UNK         0.0000
     85 C(2)        7.6537    3.2782   15.3126 C.ar      1 UNK         0.0000
     86 C(3)        8.7313    2.4115   15.1560 C.ar      1 UNK         0.0000
     87 C(4)        9.1016    1.5493   16.1849 C.ar      1 UNK         0.0000
     88 C(5)        8.3983    1.5730   17.3886 C.ar      1 UNK         0.0000
     89 C(6)        7.3205    2.4330   17.5435 C.ar      1 UNK         0.0000
     90 C(7)        5.0162    4.7222   15.8713 C.2       1 UNK         0.0000
     91 C(8)        3.8927    5.5237   16.4723 C.3       1 UNK         0.0000
     92 H(1)        7.3752    3.9410   14.5027 H         1 UNK         0.0000
     93 H(2)        9.2781    2.4222   14.2212 H         1 UNK         0.0000
     94 H(3)        8.6912    0.9172   18.1992 H         1 UNK         0.0000
     95 H(4)        6.7736    2.4494   18.4782 H         1 UNK         0.0000
     96 H(5)       10.4707    0.3452   16.8114 H         1 UNK         0.0000
     97 H(6)        5.5650    4.2150   17.7302 H         1 UNK         0.0000
     98 H(7)        4.1112    6.5542   16.3629 H         1 UNK         0.0000
     99 H(8)        3.7409    5.3165   17.4996 H         1 UNK         0.0000
    100 H(9)        3.0122    5.3593   15.9074 H         1 UNK         0.0000
    101 O(1)       11.5918   -3.8867   21.7753 O.3       1 UNK         0.0000
    102 O(2)       16.5657    0.0578   23.1020 O.2       1 UNK         0.0000
    103 N(1)       15.9146   -0.4665   20.9903 N.am      1 UNK         0.0000
    104 C(1)       14.8073   -1.3064   21.2444 C.ar      1 UNK         0.0000
    105 C(2)       14.0845   -1.3083   22.4372 C.ar      1 UNK         0.0000
    106 C(3)       13.0068   -2.1750   22.5939 C.ar      1 UNK         0.0000
    107 C(4)       12.6365   -3.0372   21.5650 C.ar      1 UNK         0.0000
    108 C(5)       13.3398   -3.0135   20.3613 C.ar      1 UNK         0.0000
    109 C(6)       14.4176   -2.1535   20.2063 C.ar      1 UNK         0.0000
    110 C(7)       16.7220    0.1357   21.8786 C.2       1 UNK         0.0000
    111 C(8)       17.8454    0.9372   21.2776 C.3       1 UNK         0.0000
    112 H(1)       14.3629   -0.6455   23.2472 H         1 UNK         0.0000
    113 H(2)       12.4600   -2.1643   23.5287 H         1 UNK         0.0000
    114 H(3)       13.0469   -3.6693   19.5507 H         1 UNK         0.0000
    115 H(4)       14.9646   -2.1371   19.2717 H         1 UNK         0.0000
    116 H(5)       11.2674   -4.2413   20.9385 H         1 UNK         0.0000
    117 H(6)       16.1731   -0.3715   20.0196 H         1 UNK         0.0000
    118 H(7)       17.6270    1.9677   21.3869 H         1 UNK         0.0000
    119 H(8)       17.9972    0.7300   20.2502 H         1 UNK         0.0000
    120 H(9)       18.7259    0.7728   21.8424 H         1 UNK         0.0000
    121 O(1)        4.3457    8.4732   11.2605 O.3       1 UNK         0.0000
    122 O(2)        9.3196    4.5287   12.5873 O.2       1 UNK         0.0000
    123 N(1)        8.6686    5.0530   10.4756 N.am      1 UNK         0.0000
    124 C(1)        7.5612    5.8929   10.7296 C.ar      1 UNK         0.0000
    125 C(2)        6.8384    5.8948   11.9225 C.ar      1 UNK         0.0000
    126 C(3)        5.7607    6.7615   12.0791 C.ar      1 UNK         0.0000
    127 C(4)        5.3904    7.6237   11.0502 C.ar      1 UNK         0.0000
    128 C(5)        6.0938    7.6000    9.8465 C.ar      1 UNK         0.0000
    129 C(6)        7.1716    6.7400    9.6916 C.ar      1 UNK         0.0000
    130 C(7)        9.4759    4.4508   11.3638 C.2       1 UNK         0.0000
    131 C(8)       10.5994    3.6493   10.7628 C.3       1 UNK         0.0000
    132 H(1)        7.1169    5.2320   12.7324 H         1 UNK         0.0000
    133 H(2)        5.2140    6.7508   13.0139 H         1 UNK         0.0000
    134 H(3)        5.8008    8.2558    9.0359 H         1 UNK         0.0000
    135 H(4)        7.7185    6.7236    8.7569 H         1 UNK         0.0000
    136 H(5)        4.0214    8.8278   10.4237 H         1 UNK         0.0000
    137 H(6)        8.9271    4.9580    9.5049 H         1 UNK         0.0000
    138 H(7)       10.3809    2.6188   10.8722 H         1 UNK         0.0000
    139 H(8)       10.7511    3.8565    9.7355 H         1 UNK         0.0000
    140 H(9)       11.4799    3.8137   11.3277 H         1 UNK         0.0000
    141 O(1)       15.4470    3.8867   12.4697 O.3       1 UNK         0.0000
    142 O(2)       10.4731   -0.0578   11.1429 O.2       1 UNK         0.0000
    143 N(1)       11.1242    0.4665   13.2546 N.am      1 UNK         0.0000
    144 C(1)       12.2315    1.3064   13.0005 C.ar      1 UNK         0.0000
    145 C(2)       12.9543    1.3083   11.8077 C.ar      1 UNK         0.0000
    146 C(3)       14.0320    2.1750   11.6511 C.ar      1 UNK         0.0000
    147 C(4)       14.4023    3.0372   12.6800 C.ar      1 UNK         0.0000
    148 C(5)       13.6989    3.0135   13.8837 C.ar      1 UNK         0.0000
    149 C(6)       12.6211    2.1535   14.0386 C.ar      1 UNK         0.0000
    150 C(7)       10.3168   -0.1357   12.3664 C.2       1 UNK         0.0000
    151 C(8)        9.1934   -0.9372   12.9673 C.3       1 UNK         0.0000
    152 H(1)       12.6759    0.6455   10.9978 H         1 UNK         0.0000
    153 H(2)       14.5788    2.1643   10.7162 H         1 UNK         0.0000
    154 H(3)       13.9919    3.6693   14.6943 H         1 UNK         0.0000
    155 H(4)       12.0742    2.1371   14.9733 H         1 UNK         0.0000
    156 H(5)       15.7714    4.2413   13.3065 H         1 UNK         0.0000
    157 H(6)       10.8657    0.3715   14.2253 H         1 UNK         0.0000
    158 H(7)        9.4118   -1.9677   12.8580 H         1 UNK         0.0000
    159 H(8)        9.0416   -0.7300   13.9947 H         1 UNK         0.0000
    160 H(9)        8.3128   -0.7728   12.4025 H         1 UNK         0.0000
    161 O(1)       11.1191    0.6998    1.7534 O.3       1 UNK         0.0000
    162 O(2)        6.1452    4.6443    0.4267 O.2       1 UNK         0.0000
    163 N(1)        6.7962    4.1200    2.5384 N.am      1 UNK         0.0000
    164 C(1)        7.9035    3.2801    2.2843 C.ar      1 UNK         0.0000
    165 C(2)        8.6264    3.2782    1.0915 C.ar      1 UNK         0.0000
    166 C(3)        9.7040    2.4115    0.9348 C.ar      1 UNK         0.0000
    167 C(4)       10.0743    1.5493    1.9637 C.ar      1 UNK         0.0000
    168 C(5)        9.3710    1.5730    3.1674 C.ar      1 UNK         0.0000
    169 C(6)        8.2932    2.4330    3.3223 C.ar      1 UNK         0.0000
    170 C(7)        5.9889    4.7222    1.6501 C.2       1 UNK         0.0000
    171 C(8)        4.8654    5.5237    2.2511 C.3       1 UNK         0.0000
    172 H(1)        8.3479    3.9410    0.2815 H         1 UNK         0.0000
    173 H(2)       10.2508    2.4222    0.0000 H         1 UNK         0.0000
    174 H(3)        9.6639    0.9172    3.9780 H         1 UNK         0.0000
    175 H(4)        7.7463    2.4494    4.2570 H         1 UNK         0.0000
    176 H(5)       11.4434    0.3452    2.5902 H         1 UNK         0.0000
    177 H(6)        6.5377    4.2150    3.5091 H         1 UNK         0.0000
    178 H(7)        5.0839    6.5542    2.1418 H         1 UNK         0.0000
    179 H(8)        4.7136    5.3165    3.2785 H         1 UNK         0.0000
    180 H(9)        3.9849    5.3593    1.6863 H         1 UNK         0.0000
    181 O(1)       -1.9276   -3.8867    7.7556 O.3       1 UNK         0.0000
    182 O(2)        3.0463    0.0578    9.0824 O.2       1 UNK         0.0000
    183 N(1)        2.3952   -0.4665    6.9707 N.am      1 UNK         0.0000
    184 C(1)        1.2879   -1.3064    7.2247 C.ar      1 UNK         0.0000
    185 C(2)        0.5651   -1.3083    8.4175 C.ar      1 UNK         0.0000
    186 C(3)       -0.5126   -2.1750    8.5742 C.ar      1 UNK         0.0000
    187 C(4)       -0.8829   -3.0372    7.5453 C.ar      1 UNK         0.0000
    188 C(5)       -0.1796   -3.0135    6.3416 C.ar      1 UNK         0.0000
    189 C(6)        0.8983   -2.1535    6.1867 C.ar      1 UNK         0.0000
    190 C(7)        3.2026    0.1357    7.8589 C.2       1 UNK         0.0000
    191 C(8)        4.3260    0.9372    7.2579 C.3       1 UNK         0.0000
    192 H(1)        0.8435   -0.6455    9.2275 H         1 UNK         0.0000
    193 H(2)       -1.0594   -2.1643    9.5090 H         1 UNK         0.0000
    194 H(3)       -0.4725   -3.6693    5.5310 H         1 UNK         0.0000
    195 H(4)        1.4452   -2.1371    5.2520 H         1 UNK         0.0000
    196 H(5)       -2.2520   -4.2413    6.9188 H         1 UNK         0.0000
    197 H(6)        2.6537   -0.3715    5.9999 H         1 UNK         0.0000
    198 H(7)        4.1076    1.9677    7.3672 H         1 UNK         0.0000
    199 H(8)        4.4778    0.7300    6.2305 H         1 UNK         0.0000
    200 H(9)        5.2066    0.7728    7.8227 H         1 UNK         0.0000
    201 O(1)        5.3184   -0.6998   18.2703 O.3       1 UNK         0.0000
    202 O(2)       10.2923   -4.6443   19.5971 O.2       1 UNK         0.0000
    203 N(1)        9.6413   -4.1200   17.4854 N.am      1 UNK         0.0000
    204 C(1)        8.5339   -3.2801   17.7395 C.ar      1 UNK         0.0000
    205 C(2)        7.8111   -3.2782   18.9323 C.ar      1 UNK         0.0000
    206 C(3)        6.7334   -2.4115   19.0889 C.ar      1 UNK         0.0000
    207 C(4)        6.3631   -1.5493   18.0600 C.ar      1 UNK         0.0000
    208 C(5)        7.0665   -1.5730   16.8563 C.ar      1 UNK         0.0000
    209 C(6)        8.1443   -2.4330   16.7014 C.ar      1 UNK         0.0000
    210 C(7)       10.4486   -4.7222   18.3737 C.2       1 UNK         0.0000
    211 C(8)       11.5721   -5.5237   17.7727 C.3       1 UNK         0.0000
    212 H(1)        8.0896   -3.9410   19.7422 H         1 UNK         0.0000
    213 H(2)        6.1867   -2.4222   20.0238 H         1 UNK         0.0000
    214 H(3)        6.7735   -0.9172   16.0457 H         1 UNK         0.0000
    215 H(4)        8.6912   -2.4494   15.7668 H         1 UNK         0.0000
    216 H(5)        4.9941   -0.3452   17.4335 H         1 UNK         0.0000
    217 H(6)        9.8998   -4.2150   16.5147 H         1 UNK         0.0000
    218 H(7)       11.3536   -6.5542   17.8820 H         1 UNK         0.0000
    219 H(8)       11.7238   -5.3165   16.7453 H         1 UNK         0.0000
    220 H(9)       12.4526   -5.3593   18.3375 H         1 UNK         0.0000
    221 O(1)        4.8457    3.8867   19.4795 O.3       1 UNK         0.0000
    222 O(2)       -0.1282   -0.0578   18.1527 O.2       1 UNK         0.0000
    223 N(1)        0.5229    0.4665   20.2644 N.am      1 UNK         0.0000
    224 C(1)        1.6302    1.3064   20.0104 C.ar      1 UNK         0.0000
    225 C(2)        2.3530    1.3083   18.8176 C.ar      1 UNK         0.0000
    226 C(3)        3.4307    2.1750   18.6609 C.ar      1 UNK         0.0000
    227 C(4)        3.8010    3.0372   19.6898 C.ar      1 UNK         0.0000
    228 C(5)        3.0976    3.0135   20.8935 C.ar      1 UNK         0.0000
    229 C(6)        2.0198    2.1535   21.0484 C.ar      1 UNK         0.0000
    230 C(7)       -0.2845   -0.1357   19.3762 C.2       1 UNK         0.0000
    231 C(8)       -1.4079   -0.9372   19.9772 C.3       1 UNK         0.0000
    232 H(1)        2.0746    0.6455   18.0076 H         1 UNK         0.0000
    233 H(2)        3.9774    2.1643   17.7261 H         1 UNK         0.0000
    234 H(3)        3.3906    3.6693   21.7041 H         1 UNK         0.0000
    235 H(4)        1.4729    2.1371   21.9831 H         1 UNK         0.0000
    236 H(5)        5.1701    4.2413   20.3163 H         1 UNK         0.0000
    237 H(6)        0.2644    0.3715   21.2352 H         1 UNK         0.0000
    238 H(7)       -1.1895   -1.9677   19.8678 H         1 UNK         0.0000
    239 H(8)       -1.5597   -0.7300   21.0046 H         1 UNK         0.0000
    240 H(9)       -2.2885   -0.7728   19.4124 H         1 UNK         0.0000
    241 O(1)        9.1737    9.8728    8.9648 O.3       1 UNK         0.0000
    242 O(2)        4.1998   13.8173    7.6380 O.2       1 UNK         0.0000
    243 N(1)        4.8508   13.2930    9.7497 N.am      1 UNK         0.0000
    244 C(1)        5.9581   12.4531    9.4956 C.ar      1 UNK         0.0000
    245 C(2)        6.6810   12.4512    8.3028 C.ar      1 UNK         0.0000
    246 C(3)        7.7586   11.5845    8.1462 C.ar      1 UNK         0.0000
    247 C(4)        8.1290   10.7223    9.1751 C.ar      1 UNK         0.0000
    248 C(5)        7.4256   10.7460   10.3788 C.ar      1 UNK         0.0000
    249 C(6)        6.3478   11.6060   10.5337 C.ar      1 UNK         0.0000
    250 C(7)        4.0435   13.8952    8.8614 C.2       1 UNK         0.0000
    251 C(8)        2.9200   14.6967    9.4624 C.3       1 UNK         0.0000
    252 H(1)        6.4025   13.1140    7.4929 H         1 UNK         0.0000
    253 H(2)        8.3054   11.5952    7.2113 H         1 UNK         0.0000
    254 H(3)        7.7186   10.0902   11.1894 H         1 UNK         0.0000
    255 H(4)        5.8009   11.6224   11.4683 H         1 UNK         0.0000
    256 H(5)        9.4980    9.5182    9.8016 H         1 UNK         0.0000
    257 H(6)        4.5923   13.3880   10.7204 H         1 UNK         0.0000
    258 H(7)        3.1385   15.7272    9.3531 H         1 UNK         0.0000
    259 H(8)        2.7683   14.4895   10.4898 H         1 UNK         0.0000
    260 H(9)        2.0395   14.5323    8.8976 H         1 UNK         0.0000
    261 O(1)       -0.9549    5.2863   14.7654 O.3       1 UNK         0.0000
    262 O(2)        4.0190    9.2308   16.0922 O.2       1 UNK         0.0000
    263 N(1)        3.3679    8.7065   13.9805 N.am      1 UNK         0.0000
    264 C(1)        2.2606    7.8666   14.2346 C.ar      1 UNK         0.0000
    265 C(2)        1.5378    7.8647   15.4274 C.ar      1 UNK         0.0000
    266 C(3)        0.4601    6.9980   15.5840 C.ar      1 UNK         0.0000
    267 C(4)        0.0898    6.1358   14.5551 C.ar      1 UNK         0.0000
    268 C(5)        0.7931    6.1595   13.3514 C.ar      1 UNK         0.0000
    269 C(6)        1.8709    7.0195   13.1965 C.ar      1 UNK         0.0000
    270 C(7)        4.1753    9.3087   14.8687 C.2       1 UNK         0.0000
    271 C(8)        5.2987   10.1102   14.2678 C.3       1 UNK         0.0000
    272 H(1)        1.8162    8.5275   16.2373 H         1 UNK         0.0000
    273 H(2)       -0.0867    7.0087   16.5188 H         1 UNK         0.0000
    274 H(3)        0.5002    5.5037   12.5408 H         1 UNK         0.0000
    275 H(4)        2.4179    7.0359   12.2618 H         1 UNK         0.0000
    276 H(5)       -1.2793    4.9317   13.9286 H         1 UNK         0.0000
    277 H(6)        3.6264    8.8015   13.0098 H         1 UNK         0.0000
    278 H(7)        5.0803   11.1407   14.3771 H         1 UNK         0.0000
    279 H(8)        5.4505    9.9030   13.2404 H         1 UNK         0.0000
    280 H(9)        6.1792    9.9458   14.8326 H         1 UNK         0.0000
    281 O(1)        3.3730   17.6462    4.2507 O.3       1 UNK         0.0000
    282 O(2)        8.3469   13.7017    5.5774 O.2       1 UNK         0.0000
    283 N(1)        7.6959   14.2260    3.4657 N.am      1 UNK         0.0000
    284 C(1)        6.5885   15.0659    3.7198 C.ar      1 UNK         0.0000
    285 C(2)        5.8657   15.0678    4.9126 C.ar      1 UNK         0.0000
    286 C(3)        4.7881   15.9345    5.0693 C.ar      1 UNK         0.0000
    287 C(4)        4.4177   16.7967    4.0404 C.ar      1 UNK         0.0000
    288 C(5)        5.1211   16.7730    2.8367 C.ar      1 UNK         0.0000
    289 C(6)        6.1989   15.9130    2.6817 C.ar      1 UNK         0.0000
    290 C(7)        8.5032   13.6238    4.3540 C.2       1 UNK         0.0000
    291 C(8)        9.6267   12.8223    3.7530 C.3       1 UNK         0.0000
    292 H(1)        6.1442   14.4050    5.7226 H         1 UNK         0.0000
    293 H(2)        4.2413   15.9238    6.0041 H         1 UNK         0.0000
    294 H(3)        4.8281   17.4288    2.0261 H         1 UNK         0.0000
    295 H(4)        6.7458   15.8966    1.7471 H         1 UNK         0.0000
    296 H(5)        3.0487   18.0008    3.4139 H         1 UNK         0.0000
    297 H(6)        7.9544   14.1310    2.4950 H         1 UNK         0.0000
    298 H(7)        9.4082   11.7918    3.8623 H         1 UNK         0.0000
    299 H(8)        9.7784   13.0295    2.7256 H         1 UNK         0.0000
    300 H(9)       10.5072   12.9867    4.3178 H         1 UNK         0.0000
    301 O(1)        2.9003   13.0597    5.4598 O.3       1 UNK         0.0000
    302 O(2)       -2.0736    9.1152    4.1331 O.2       1 UNK         0.0000
    303 N(1)       -1.4225    9.6395    6.2448 N.am      1 UNK         0.0000
    304 C(1)       -0.3152   10.4794    5.9907 C.ar      1 UNK         0.0000
    305 C(2)        0.4076   10.4813    4.7979 C.ar      1 UNK         0.0000
    306 C(3)        1.4853   11.3480    4.6412 C.ar      1 UNK         0.0000
    307 C(4)        1.8556   12.2102    5.6701 C.ar      1 UNK         0.0000
    308 C(5)        1.1523   12.1865    6.8738 C.ar      1 UNK         0.0000
    309 C(6)        0.0744   11.3265    7.0288 C.ar      1 UNK         0.0000
    310 C(7)       -2.2299    9.0373    5.3565 C.2       1 UNK         0.0000
    311 C(8)       -3.3533    8.2358    5.9575 C.3       1 UNK         0.0000
    312 H(1)        0.1292    9.8185    3.9879 H         1 UNK         0.0000
    313 H(2)        2.0321   11.3373    3.7064 H         1 UNK         0.0000
    314 H(3)        1.4452   12.8423    7.6844 H         1 UNK         0.0000
    315 H(4)       -0.4725   11.3101    7.9634 H         1 UNK         0.0000
    316 H(5)        3.2247   13.4143    6.2966 H         1 UNK         0.0000
    317 H(6)       -1.6810    9.5445    7.2155 H         1 UNK         0.0000
    318 H(7)       -3.1349    7.2053    5.8482 H         1 UNK         0.0000
    319 H(8)       -3.5051    8.4430    6.9849 H         1 UNK         0.0000
    320 H(9)       -4.2339    8.4002    5.3927 H         1 UNK         0.0000
    321 O(1)       10.1464    9.8728   15.9746 O.3       1 UNK         0.0000
    322 O(2)        5.1725   13.8173   14.6478 O.2       1 UNK         0.0000
    323 N(1)        5.8235   13.2930   16.7595 N.am      1 UNK         0.0000
    324 C(1)        6.9308   12.4531   16.5055 C.ar      1 UNK         0.0000
    325 C(2)        7.6537   12.4512   15.3126 C.ar      1 UNK         0.0000
    326 C(3)        8.7313   11.5845   15.1560 C.ar      1 UNK         0.0000
    327 C(4)        9.1016   10.7223   16.1849 C.ar      1 UNK         0.0000
    328 C(5)        8.3983   10.7460   17.3886 C.ar      1 UNK         0.0000
    329 C(6)        7.3205   11.6060   17.5435 C.ar      1 UNK         0.0000
    330 C(7)        5.0162   13.8952   15.8713 C.2       1 UNK         0.0000
    331 C(8)        3.8927   14.6967   16.4723 C.3       1 UNK         0.0000
    332 H(1)        7.3752   13.1140   14.5027 H         1 UNK         0.0000
    333 H(2)        9.2781   11.5952   14.2212 H         1 UNK         0.0000
    334 H(3)        8.6912   10.0902   18.1992 H         1 UNK         0.0000
    335 H(4)        6.7736   11.6224   18.4782 H         1 UNK         0.0000
    336 H(5)       10.4707    9.5182   16.8114 H         1 UNK         0.0000
    337 H(6)        5.5650   13.3880   17.7302 H         1 UNK         0.0000
    338 H(7)        4.1112   15.7272   16.3629 H         1 UNK         0.0000
    339 H(8)        3.7409   14.4895   17.4996 H         1 UNK         0.0000
    340 H(9)        3.0122   14.5323   15.9074 H         1 UNK         0.0000
    341 O(1)       11.5918    5.2863   21.7753 O.3       1 UNK         0.0000
    342 O(2)       16.5657    9.2308   23.1020 O.2       1 UNK         0.0000
    343 N(1)       15.9146    8.7065   20.9903 N.am      1 UNK         0.0000
    344 C(1)       14.8073    7.8666   21.2444 C.ar      1 UNK         0.0000
    345 C(2)       14.0845    7.8647   22.4372 C.ar      1 UNK         0.0000
    346 C(3)       13.0068    6.9980   22.5939 C.ar      1 UNK         0.0000
    347 C(4)       12.6365    6.1358   21.5650 C.ar      1 UNK         0.0000
    348 C(5)       13.3398    6.1595   20.3613 C.ar      1 UNK         0.0000
    349 C(6)       14.4176    7.0195   20.2063 C.ar      1 UNK         0.0000
    350 C(7)       16.7220    9.3087   21.8786 C.2       1 UNK         0.0000
    351 C(8)       17.8454   10.1102   21.2776 C.3       1 UNK         0.0000
    352 H(1)       14.3629    8.5275   23.2472 H         1 UNK         0.0000
    353 H(2)       12.4600    7.0087   23.5287 H         1 UNK         0.0000
    354 H(3)       13.0469    5.5037   19.5507 H         1 UNK         0.0000
    355 H(4)       14.9646    7.0359   19.2717 H         1 UNK         0.0000
    356 H(5)       11.2674    4.9317   20.9385 H         1 UNK         0.0000
    357 H(6)       16.1731    8.8015   20.0196 H         1 UNK         0.0000
    358 H(7)       17.6270   11.1407   21.3869 H         1 UNK         0.0000
    359 H(8)       17.9972    9.9030   20.2502 H         1 UNK         0.0000
    360 H(9)       18.7259    9.9458   21.8424 H         1 UNK         0.0000
    361 O(1)        4.3457   17.6462   11.2605 O.3       1 UNK         0.0000
    362 O(2)        9.3196   13.7017   12.5873 O.2       1 UNK         0.0000
    363 N(1)        8.6686   14.2260   10.4756 N.am      1 UNK         0.0000
    364 C(1)        7.5612   15.0659   10.7296 C.ar      1 UNK         0.0000
    365 C(2)        6.8384   15.0678   11.9225 C.ar      1 UNK         0.0000
    366 C(3)        5.7607   15.9345   12.0791 C.ar      1 UNK         0.0000
    367 C(4)        5.3904   16.7967   11.0502 C.ar      1 UNK         0.0000
    368 C(5)        6.0938   16.7730    9.8465 C.ar      1 UNK         0.0000
    369 C(6)        7.1716   15.9130    9.6916 C.ar      1 UNK         0.0000
    370 C(7)        9.4759   13.6238   11.3638 C.2       1 UNK         0.0000
    371 C(8)       10.5994   12.8223   10.7628 C.3       1 UNK         0.0000
    372 H(1)        7.1169   14.4050   12.7324 H         1 UNK         0.0000
    373 H(2)        5.2140   15.9238   13.0139 H         1 UNK         0.0000
    374 H(3)        5.8008   17.4288    9.0359 H         1 UNK         0.0000
    375 H(4)        7.7185   15.8966    8.7569 H         1 UNK         0.0000
    376 H(5)        4.0214   18.0008   10.4237 H         1 UNK         0.0000
    377 H(6)        8.9271   14.1310    9.5049 H         1 UNK         0.0000
    378 H(7)       10.3809   11.7918   10.8722 H         1 UNK         0.0000
    379 H(8)       10.7511   13.0295    9.7355 H         1 UNK         0.0000
    380 H(9)       11.4799   12.9867   11.3277 H         1 UNK         0.0000
    381 O(1)       15.4470   13.0597   12.4697 O.3       1 UNK         0.0000
    382 O(2)       10.4731    9.1152   11.1429 O.2       1 UNK         0.0000
    383 N(1)       11.1242    9.6395   13.2546 N.am      1 UNK         0.0000
    384 C(1)       12.2315   10.4794   13.0005 C.ar      1 UNK         0.0000
    385 C(2)       12.9543   10.4813   11.8077 C.ar      1 UNK         0.0000
    386 C(3)       14.0320   11.3480   11.6511 C.ar      1 UNK         0.0000
    387 C(4)       14.4023   12.2102   12.6800 C.ar      1 UNK         0.0000
    388 C(5)       13.6989   12.1865   13.8837 C.ar      1 UNK         0.0000
    389 C(6)       12.6211   11.3265   14.0386 C.ar      1 UNK         0.0000
    390 C(7)       10.3168    9.0373   12.3664 C.2       1 UNK         0.0000
    391 C(8)        9.1934    8.2358   12.9673 C.3       1 UNK         0.0000
    392 H(1)       12.6759    9.8185   10.9978 H         1 UNK         0.0000
    393 H(2)       14.5788   11.3373   10.7162 H         1 UNK         0.0000
    394 H(3)       13.9919   12.8423   14.6943 H         1 UNK         0.0000
    395 H(4)       12.0742   11.3101   14.9733 H         1 UNK         0.0000
    396 H(5)       15.7714   13.4143   13.3065 H         1 UNK         0.0000
    397 H(6)       10.8657    9.5445   14.2253 H         1 UNK         0.0000
    398 H(7)        9.4118    7.2053   12.8580 H         1 UNK         0.0000
    399 H(8)        9.0416    8.4430   13.9947 H         1 UNK         0.0000
    400 H(9)        8.3128    8.4002   12.4025 H         1 UNK         0.0000
    401 O(1)       11.1191    9.8728    1.7534 O.3       1 UNK         0.0000
    402 O(2)        6.1452   13.8173    0.4267 O.2       1 UNK         0.0000
    403 N(1)        6.7962   13.2930    2.5384 N.am      1 UNK         0.0000
    404 C(1)        7.9035   12.4531    2.2843 C.ar      1 UNK         0.0000
    405 C(2)        8.6264   12.4512    1.0915 C.ar      1 UNK         0.0000
    406 C(3)        9.7040   11.5845    0.9348 C.ar      1 UNK         0.0000
    407 C(4)       10.0743   10.7223    1.9637 C.ar      1 UNK         0.0000
    408 C(5)        9.3710   10.7460    3.1674 C.ar      1 UNK         0.0000
    409 C(6)        8.2932   11.6060    3.3223 C.ar      1 UNK         0.0000
    410 C(7)        5.9889   13.8952    1.6501 C.2       1 UNK         0.0000
    411 C(8)        4.8654   14.6967    2.2511 C.3       1 UNK         0.0000
    412 H(1)        8.3479   13.1140    0.2815 H         1 UNK         0.0000
    413 H(2)       10.2508   11.5952    0.0000 H         1 UNK         0.0000
    414 H(3)        9.6639   10.0902    3.9780 H         1 UNK         0.0000
    415 H(4)        7.7463   11.6224    4.2570 H         1 UNK         0.0000
    416 H(5)       11.4434    9.5182    2.5902 H         1 UNK         0.0000
    417 H(6)        6.5377   13.3880    3.5091 H         1 UNK         0.0000
    418 H(7)        5.0839   15.7272    2.1418 H         1 UNK         0.0000
    419 H(8)        4.7136   14.4895    3.2785 H         1 UNK         0.0000
    420 H(9)        3.9849   14.5323    1.6863 H         1 UNK         0.0000
    421 O(1)       -1.9276    5.2863    7.7556 O.3       1 UNK         0.0000
    422 O(2)        3.0463    9.2308    9.0824 O.2       1 UNK         0.0000
    423 N(1)        2.3952    8.7065    6.9707 N.am      1 UNK         0.0000
    424 C(1)        1.2879    7.8666    7.2247 C.ar      1 UNK         0.0000
    425 C(2)        0.5651    7.8647    8.4175 C.ar      1 UNK         0.0000
    426 C(3)       -0.5126    6.9980    8.5742 C.ar      1 UNK         0.0000
    427 C(4)       -0.8829    6.1358    7.5453 C.ar      1 UNK         0.0000
    428 C(5)       -0.1796    6.1595    6.3416 C.ar      1 UNK         0.0000
    429 C(6)        0.8983    7.0195    6.1867 C.ar      1 UNK         0.0000
    430 C(7)        3.2026    9.3087    7.8589 C.2       1 UNK         0.0000
    431 C(8)        4.3260   10.1102    7.2579 C.3       1 UNK         0.0000
    432 H(1)        0.8435    8.5275    9.2275 H         1 UNK         0.0000
    433 H(2)       -1.0594    7.0087    9.5090 H         1 UNK         0.0000
    434 H(3)       -0.4725    5.5037    5.5310 H         1 UNK         0.0000
    435 H(4)        1.4452    7.0359    5.2520 H         1 UNK         0.0000
    436 H(5)       -2.2520    4.9317    6.9188 H         1 UNK         0.0000
    437 H(6)        2.6537    8.8015    5.9999 H         1 UNK         0.0000
    438 H(7)        4.1076   11.1407    7.3672 H         1 UNK         0.0000
    439 H(8)        4.4778    9.9030    6.2305 H         1 UNK         0.0000
    440 H(9)        5.2066    9.9458    7.8227 H         1 UNK         0.0000
    441 O(1)        5.3184    8.4732   18.2703 O.3       1 UNK         0.0000
    442 O(2)       10.2923    4.5287   19.5971 O.2       1 UNK         0.0000
    443 N(1)        9.6413    5.0530   17.4854 N.am      1 UNK         0.0000
    444 C(1)        8.5339    5.8929   17.7395 C.ar      1 UNK         0.0000
    445 C(2)        7.8111    5.8948   18.9323 C.ar      1 UNK         0.0000
    446 C(3)        6.7334    6.7615   19.0889 C.ar      1 UNK         0.0000
    447 C(4)        6.3631    7.6237   18.0600 C.ar      1 UNK         0.0000
    448 C(5)        7.0665    7.6000   16.8563 C.ar      1 UNK         0.0000
    449 C(6)        8.1443    6.7400   16.7014 C.ar      1 UNK         0.0000
    450 C(7)       10.4486    4.4508   18.3737 C.2       1 UNK         0.0000
    451 C(8)       11.5721    3.6493   17.7727 C.3       1 UNK         0.0000
    452 H(1)        8.0896    5.2320   19.7422 H         1 UNK         0.0000
    453 H(2)        6.1867    6.7508   20.0238 H         1 UNK         0.0000
    454 H(3)        6.7735    8.2558   16.0457 H         1 UNK         0.0000
    455 H(4)        8.6912    6.7236   15.7668 H         1 UNK         0.0000
    456 H(5)        4.9941    8.8278   17.4335 H         1 UNK         0.0000
    457 H(6)        9.8998    4.9580   16.5147 H         1 UNK         0.0000
    458 H(7)       11.3536    2.6188   17.8820 H         1 UNK         0.0000
    459 H(8)       11.7238    3.8565   16.7453 H         1 UNK         0.0000
    460 H(9)       12.4526    3.8137   18.3375 H         1 UNK         0.0000
    461 O(1)        4.8457   13.0597   19.4795 O.3       1 UNK         0.0000
    462 O(2)       -0.1282    9.1152   18.1527 O.2       1 UNK         0.0000
    463 N(1)        0.5229    9.6395   20.2644 N.am      1 UNK         0.0000
    464 C(1)        1.6302   10.4794   20.0104 C.ar      1 UNK         0.0000
    465 C(2)        2.3530   10.4813   18.8176 C.ar      1 UNK         0.0000
    466 C(3)        3.4307   11.3480   18.6609 C.ar      1 UNK         0.0000
    467 C(4)        3.8010   12.2102   19.6898 C.ar      1 UNK         0.0000
    468 C(5)        3.0976   12.1865   20.8935 C.ar      1 UNK         0.0000
    469 C(6)        2.0198   11.3265   21.0484 C.ar      1 UNK         0.0000
    470 C(7)       -0.2845    9.0373   19.3762 C.2       1 UNK         0.0000
    471 C(8)       -1.4079    8.2358   19.9772 C.3       1 UNK         0.0000
    472 H(1)        2.0746    9.8185   18.0076 H         1 UNK         0.0000
    473 H(2)        3.9774   11.3373   17.7261 H         1 UNK         0.0000
    474 H(3)        3.3906   12.8423   21.7041 H         1 UNK         0.0000
    475 H(4)        1.4729   11.3101   21.9831 H         1 UNK         0.0000
    476 H(5)        5.1701   13.4143   20.3163 H         1 UNK         0.0000
    477 H(6)        0.2644    9.5445   21.2352 H         1 UNK         0.0000
    478 H(7)       -1.1895    7.2053   19.8678 H         1 UNK         0.0000
    479 H(8)       -1.5597    8.4430   21.0046 H         1 UNK         0.0000
    480 H(9)       -2.2885    8.4002   19.4124 H         1 UNK         0.0000
    481 O(1)        9.1737   19.0458    8.9648 O.3       1 UNK         0.0000
    482 O(2)        4.1998   22.9903    7.6380 O.2       1 UNK         0.0000
    483 N(1)        4.8508   22.4660    9.7497 N.am      1 UNK         0.0000
    484 C(1)        5.9581   21.6261    9.4956 C.ar      1 UNK         0.0000
    485 C(2)        6.6810   21.6242    8.3028 C.ar      1 UNK         0.0000
    486 C(3)        7.7586   20.7575    8.1462 C.ar      1 UNK         0.0000
    487 C(4)        8.1290   19.8953    9.1751 C.ar      1 UNK         0.0000
    488 C(5)        7.4256   19.9190   10.3788 C.ar      1 UNK         0.0000
    489 C(6)        6.3478   20.7790   10.5337 C.ar      1 UNK         0.0000
    490 C(7)        4.0435   23.0682    8.8614 C.2       1 UNK         0.0000
    491 C(8)        2.9200   23.8697    9.4624 C.3       1 UNK         0.0000
    492 H(1)        6.4025   22.2870    7.4929 H         1 UNK         0.0000
    493 H(2)        8.3054   20.7682    7.2113 H         1 UNK         0.0000
    494 H(3)        7.7186   19.2632   11.1894 H         1 UNK         0.0000
    495 H(4)        5.8009   20.7954   11.4683 H         1 UNK         0.0000
    496 H(5)        9.4980   18.6912    9.8016 H         1 UNK         0.0000
    497 H(6)        4.5923   22.5611   10.7204 H         1 UNK         0.0000
    498 H(7)        3.1385   24.9002    9.3531 H         1 UNK         0.0000
    499 H(8)        2.7683   23.6625   10.4898 H         1 UNK         0.0000
    500 H(9)        2.0395   23.7053    8.8976 H         1 UNK         0.0000
    501 O(1)       -0.9549   14.4593   14.7654 O.3       1 UNK         0.0000
    502 O(2)        4.0190   18.4038   16.0922 O.2       1 UNK         0.0000
    503 N(1)        3.3679   17.8795   13.9805 N.am      1 UNK         0.0000
    504 C(1)        2.2606   17.0396   14.2346 C.ar      1 UNK         0.0000
    505 C(2)        1.5378   17.0377   15.4274 C.ar      1 UNK         0.0000
    506 C(3)        0.4601   16.1710   15.5840 C.ar      1 UNK         0.0000
    507 C(4)        0.0898   15.3088   14.5551 C.ar      1 UNK         0.0000
    508 C(5)        0.7931   15.3325   13.3514 C.ar      1 UNK         0.0000
    509 C(6)        1.8709   16.1925   13.1965 C.ar      1 UNK         0.0000
    510 C(7)        4.1753   18.4817   14.8687 C.2       1 UNK         0.0000
    511 C(8)        5.2987   19.2832   14.2678 C.3       1 UNK         0.0000
    512 H(1)        1.8162   17.7005   16.2373 H         1 UNK         0.0000
    513 H(2)       -0.0867   16.1817   16.5188 H         1 UNK         0.0000
    514 H(3)        0.5002   14.6767   12.5408 H         1 UNK         0.0000
    515 H(4)        2.4179   16.2089   12.2618 H         1 UNK         0.0000
    516 H(5)       -1.2793   14.1047   13.9286 H         1 UNK         0.0000
    517 H(6)        3.6264   17.9746   13.0098 H         1 UNK         0.0000
    518 H(7)        5.0803   20.3137   14.3771 H         1 UNK         0.0000
    519 H(8)        5.4505   19.0760   13.2404 H         1 UNK         0.0000
    520 H(9)        6.1792   19.1188   14.8326 H         1 UNK         0.0000
    521 O(1)        3.3730   26.8192    4.2507 O.3       1 UNK         0.0000
    522 O(2)        8.3469   22.8747    5.5774 O.2       1 UNK         0.0000
    523 N(1)        7.6959   23.3990    3.4657 N.am      1 UNK         0.0000
    524 C(1)        6.5885   24.2389    3.7198 C.ar      1 UNK         0.0000
    525 C(2)        5.8657   24.2408    4.9126 C.ar      1 UNK         0.0000
    526 C(3)        4.7881   25.1075    5.0693 C.ar      1 UNK         0.0000
    527 C(4)        4.4177   25.9697    4.0404 C.ar      1 UNK         0.0000
    528 C(5)        5.1211   25.9460    2.8367 C.ar      1 UNK         0.0000
    529 C(6)        6.1989   25.0860    2.6817 C.ar      1 UNK         0.0000
    530 C(7)        8.5032   22.7968    4.3540 C.2       1 UNK         0.0000
    531 C(8)        9.6267   21.9953    3.7530 C.3       1 UNK         0.0000
    532 H(1)        6.1442   23.5780    5.7226 H         1 UNK         0.0000
    533 H(2)        4.2413   25.0968    6.0041 H         1 UNK         0.0000
    534 H(3)        4.8281   26.6018    2.0261 H         1 UNK         0.0000
    535 H(4)        6.7458   25.0696    1.7471 H         1 UNK         0.0000
    536 H(5)        3.0487   27.1738    3.4139 H         1 UNK         0.0000
    537 H(6)        7.9544   23.3040    2.4950 H         1 UNK         0.0000
    538 H(7)        9.4082   20.9648    3.8623 H         1 UNK         0.0000
    539 H(8)        9.7784   22.2025    2.7256 H         1 UNK         0.0000
    540 H(9)       10.5072   22.1597    4.3178 H         1 UNK         0.0000
    541 O(1)        2.9003   22.2327    5.4598 O.3       1 UNK         0.0000
    542 O(2)       -2.0736   18.2882    4.1331 O.2       1 UNK         0.0000
    543 N(1)       -1.4225   18.8125    6.2448 N.am      1 UNK         0.0000
    544 C(1)       -0.3152   19.6524    5.9907 C.ar      1 UNK         0.0000
    545 C(2)        0.4076   19.6543    4.7979 C.ar      1 UNK         0.0000
    546 C(3)        1.4853   20.5210    4.6412 C.ar      1 UNK         0.0000
    547 C(4)        1.8556   21.3832    5.6701 C.ar      1 UNK         0.0000
    548 C(5)        1.1523   21.3595    6.8738 C.ar      1 UNK         0.0000
    549 C(6)        0.0744   20.4995    7.0288 C.ar      1 UNK         0.0000
    550 C(7)       -2.2299   18.2103    5.3565 C.2       1 UNK         0.0000
    551 C(8)       -3.3533   17.4088    5.9575 C.3       1 UNK         0.0000
    552 H(1)        0.1292   18.9915    3.9879 H         1 UNK         0.0000
    553 H(2)        2.0321   20.5103    3.7064 H         1 UNK         0.0000
    554 H(3)        1.4452   22.0153    7.6844 H         1 UNK         0.0000
    555 H(4)       -0.4725   20.4831    7.9634 H         1 UNK         0.0000
    556 H(5)        3.2247   22.5873    6.2966 H         1 UNK         0.0000
    557 H(6)       -1.6810   18.7175    7.2155 H         1 UNK         0.0000
    558 H(7)       -3.1349   16.3783    5.8482 H         1 UNK         0.0000
    559 H(8)       -3.5051   17.6160    6.9849 H         1 UNK         0.0000
    560 H(9)       -4.2339   17.5732    5.3927 H         1 UNK         0.0000
    561 O(1)       10.1464   19.0458   15.9746 O.3       1 UNK         0.0000
    562 O(2)        5.1725   22.9903   14.6478 O.2       1 UNK         0.0000
    563 N(1)        5.8235   22.4660   16.7595 N.am      1 UNK         0.0000
    564 C(1)        6.9308   21.6261   16.5055 C.ar      1 UNK         0.0000
    565 C(2)        7.6537   21.6242   15.3126 C.ar      1 UNK         0.0000
    566 C(3)        8.7313   20.7575   15.1560 C.ar      1 UNK         0.0000
    567 C(4)        9.1016   19.8953   16.1849 C.ar      1 UNK         0.0000
    568 C(5)        8.3983   19.9190   17.3886 C.ar      1 UNK         0.0000
    569 C(6)        7.3205   20.7790   17.5435 C.ar      1 UNK         0.0000
    570 C(7)        5.0162   23.0682   15.8713 C.2       1 UNK         0.0000
    571 C(8)        3.8927   23.8697   16.4723 C.3       1 UNK         0.0000
    572 H(1)        7.3752   22.2870   14.5027 H         1 UNK         0.0000
    573 H(2)        9.2781   20.7682   14.2212 H         1 UNK         0.0000
    574 H(3)        8.6912   19.2632   18.1992 H         1 UNK         0.0000
    575 H(4)        6.7736   20.7954   18.4782 H         1 UNK         0.0000
    576 H(5)       10.4707   18.6912   16.8114 H         1 UNK         0.0000
    577 H(6)        5.5650   22.5611   17.7302 H         1 UNK         0.0000
    578 H(7)        4.1112   24.9002   16.3629 H         1 UNK         0.0000
    579 H(8)        3.7409   23.6625   17.4996 H         1 UNK         0.0000
    580 H(9)        3.0122   23.7053   15.9074 H         1 UNK         0.0000
    581 O(1)       11.5918   14.4593   21.7753 O.3       1 UNK         0.0000
    582 O(2)       16.5657   18.4038   23.1020 O.2       1 UNK         0.0000
    583 N(1)       15.9146   17.8795   20.9903 N.am      1 UNK         0.0000
    584 C(1)       14.8073   17.0396   21.2444 C.ar      1 UNK         0.0000
    585 C(2)       14.0845   17.0377   22.4372 C.ar      1 UNK         0.0000
    586 C(3)       13.0068   16.1710   22.5939 C.ar      1 UNK         0.0000
    587 C(4)       12.6365   15.3088   21.5650 C.ar      1 UNK         0.0000
    588 C(5)       13.3398   15.3325   20.3613 C.ar      1 UNK         0.0000
    589 C(6)       14.4176   16.1925   20.2063 C.ar      1 UNK         0.0000
    590 C(7)       16.7220   18.4817   21.8786 C.2       1 UNK         0.0000
    591 C(8)       17.8454   19.2832   21.2776 C.3       1 UNK         0.0000
    592 H(1)       14.3629   17.7005   23.2472 H         1 UNK         0.0000
    593 H(2)       12.4600   16.1817   23.5287 H         1 UNK         0.0000
    594 H(3)       13.0469   14.6767   19.5507 H         1 UNK         0.0000
    595 H(4)       14.9646   16.2089   19.2717 H         1 UNK         0.0000
    596 H(5)       11.2674   14.1047   20.9385 H         1 UNK         0.0000
    597 H(6)       16.1731   17.9746   20.0196 H         1 UNK         0.0000
    598 H(7)       17.6270   20.3137   21.3869 H         1 UNK         0.0000
    599 H(8)       17.9972   19.0760   20.2502 H         1 UNK         0.0000
    600 H(9)       18.7259   19.1188   21.8424 H         1 UNK         0.0000
    601 O(1)        4.3457   26.8192   11.2605 O.3       1 UNK         0.0000
    602 O(2)        9.3196   22.8747   12.5873 O.2       1 UNK         0.0000
    603 N(1)        8.6686   23.3990   10.4756 N.am      1 UNK         0.0000
    604 C(1)        7.5612   24.2389   10.7296 C.ar      1 UNK         0.0000
    605 C(2)        6.8384   24.2408   11.9225 C.ar      1 UNK         0.0000
    606 C(3)        5.7607   25.1075   12.0791 C.ar      1 UNK         0.0000
    607 C(4)        5.3904   25.9697   11.0502 C.ar      1 UNK         0.0000
    608 C(5)        6.0938   25.9460    9.8465 C.ar      1 UNK         0.0000
    609 C(6)        7.1716   25.0860    9.6916 C.ar      1 UNK         0.0000
    610 C(7)        9.4759   22.7968   11.3638 C.2       1 UNK         0.0000
    611 C(8)       10.5994   21.9953   10.7628 C.3       1 UNK         0.0000
    612 H(1)        7.1169   23.5780   12.7324 H         1 UNK         0.0000
    613 H(2)        5.2140   25.0968   13.0139 H         1 UNK         0.0000
    614 H(3)        5.8008   26.6018    9.0359 H         1 UNK         0.0000
    615 H(4)        7.7185   25.0696    8.7569 H         1 UNK         0.0000
    616 H(5)        4.0214   27.1738   10.4237 H         1 UNK         0.0000
    617 H(6)        8.9271   23.3040    9.5049 H         1 UNK         0.0000
    618 H(7)       10.3809   20.9648   10.8722 H         1 UNK         0.0000
    619 H(8)       10.7511   22.2025    9.7355 H         1 UNK         0.0000
    620 H(9)       11.4799   22.1597   11.3277 H         1 UNK         0.0000
    621 O(1)       15.4470   22.2327   12.4697 O.3       1 UNK         0.0000
    622 O(2)       10.4731   18.2882   11.1429 O.2       1 UNK         0.0000
    623 N(1)       11.1242   18.8125   13.2546 N.am      1 UNK         0.0000
    624 C(1)       12.2315   19.6524   13.0005 C.ar      1 UNK         0.0000
    625 C(2)       12.9543   19.6543   11.8077 C.ar      1 UNK         0.0000
    626 C(3)       14.0320   20.5210   11.6511 C.ar      1 UNK         0.0000
    627 C(4)       14.4023   21.3832   12.6800 C.ar      1 UNK         0.0000
    628 C(5)       13.6989   21.3595   13.8837 C.ar      1 UNK         0.0000
    629 C(6)       12.6211   20.4995   14.0386 C.ar      1 UNK         0.0000
    630 C(7)       10.3168   18.2103   12.3664 C.2       1 UNK         0.0000
    631 C(8)        9.1934   17.4088   12.9673 C.3       1 UNK         0.0000
    632 H(1)       12.6759   18.9915   10.9978 H         1 UNK         0.0000
    633 H(2)       14.5788   20.5103   10.7162 H         1 UNK         0.0000
    634 H(3)       13.9919   22.0153   14.6943 H         1 UNK         0.0000
    635 H(4)       12.0742   20.4831   14.9733 H         1 UNK         0.0000
    636 H(5)       15.7714   22.5873   13.3065 H         1 UNK         0.0000
    637 H(6)       10.8657   18.7175   14.2253 H         1 UNK         0.0000
    638 H(7)        9.4118   16.3783   12.8580 H         1 UNK         0.0000
    639 H(8)        9.0416   17.6160   13.9947 H         1 UNK         0.0000
    640 H(9)        8.3128   17.5732   12.4025 H         1 UNK         0.0000
    641 O(1)       11.1191   19.0458    1.7534 O.3       1 UNK         0.0000
    642 O(2)        6.1452   22.9903    0.4267 O.2       1 UNK         0.0000
    643 N(1)        6.7962   22.4660    2.5384 N.am      1 UNK         0.0000
    644 C(1)        7.9035   21.6261    2.2843 C.ar      1 UNK         0.0000
    645 C(2)        8.6264   21.6242    1.0915 C.ar      1 UNK         0.0000
    646 C(3)        9.7040   20.7575    0.9348 C.ar      1 UNK         0.0000
    647 C(4)       10.0743   19.8953    1.9637 C.ar      1 UNK         0.0000
    648 C(5)        9.3710   19.9190    3.1674 C.ar      1 UNK         0.0000
    649 C(6)        8.2932   20.7790    3.3223 C.ar      1 UNK         0.0000
    650 C(7)        5.9889   23.0682    1.6501 C.2       1 UNK         0.0000
    651 C(8)        4.8654   23.8697    2.2511 C.3       1 UNK         0.0000
    652 H(1)        8.3479   22.2870    0.2815 H         1 UNK         0.0000
    653 H(2)       10.2508   20.7682    0.0000 H         1 UNK         0.0000
    654 H(3)        9.6639   19.2632    3.9780 H         1 UNK         0.0000
    655 H(4)        7.7463   20.7954    4.2570 H         1 UNK         0.0000
    656 H(5)       11.4434   18.6912    2.5902 H         1 UNK         0.0000
    657 H(6)        6.5377   22.5611    3.5091 H         1 UNK         0.0000
    658 H(7)        5.0839   24.9002    2.1418 H         1 UNK         0.0000
    659 H(8)        4.7136   23.6625    3.2785 H         1 UNK         0.0000
    660 H(9)        3.9849   23.7053    1.6863 H         1 UNK         0.0000
    661 O(1)       -1.9276   14.4593    7.7556 O.3       1 UNK         0.0000
    662 O(2)        3.0463   18.4038    9.0824 O.2       1 UNK         0.0000
    663 N(1)        2.3952   17.8795    6.9707 N.am      1 UNK         0.0000
    664 C(1)        1.2879   17.0396    7.2247 C.ar      1 UNK         0.0000
    665 C(2)        0.5651   17.0377    8.4175 C.ar      1 UNK         0.0000
    666 C(3)       -0.5126   16.1710    8.5742 C.ar      1 UNK         0.0000
    667 C(4)       -0.8829   15.3088    7.5453 C.ar      1 UNK         0.0000
    668 C(5)       -0.1796   15.3325    6.3416 C.ar      1 UNK         0.0000
    669 C(6)        0.8983   16.1925    6.1867 C.ar      1 UNK         0.0000
    670 C(7)        3.2026   18.4817    7.8589 C.2       1 UNK         0.0000
    671 C(8)        4.3260   19.2832    7.2579 C.3       1 UNK         0.0000
    672 H(1)        0.8435   17.7005    9.2275 H         1 UNK         0.0000
    673 H(2)       -1.0594   16.1817    9.5090 H         1 UNK         0.0000
    674 H(3)       -0.4725   14.6767    5.5310 H         1 UNK         0.0000
    675 H(4)        1.4452   16.2089    5.2520 H         1 UNK         0.0000
    676 H(5)       -2.2520   14.1047    6.9188 H         1 UNK         0.0000
    677 H(6)        2.6537   17.9746    5.9999 H         1 UNK         0.0000
    678 H(7)        4.1076   20.3137    7.3672 H         1 UNK         0.0000
    679 H(8)        4.4778   19.0760    6.2305 H         1 UNK         0.0000
    680 H(9)        5.2066   19.1188    7.8227 H         1 UNK         0.0000
    681 O(1)        5.3184   17.6462   18.2703 O.3       1 UNK         0.0000
    682 O(2)       10.2923   13.7017   19.5971 O.2       1 UNK         0.0000
    683 N(1)        9.6413   14.2260   17.4854 N.am      1 UNK         0.0000
    684 C(1)        8.5339   15.0659   17.7395 C.ar      1 UNK         0.0000
    685 C(2)        7.8111   15.0678   18.9323 C.ar      1 UNK         0.0000
    686 C(3)        6.7334   15.9345   19.0889 C.ar      1 UNK         0.0000
    687 C(4)        6.3631   16.7967   18.0600 C.ar      1 UNK         0.0000
    688 C(5)        7.0665   16.7730   16.8563 C.ar      1 UNK         0.0000
    689 C(6)        8.1443   15.9130   16.7014 C.ar      1 UNK         0.0000
    690 C(7)       10.4486   13.6238   18.3737 C.2       1 UNK         0.0000
    691 C(8)       11.5721   12.8223   17.7727 C.3       1 UNK         0.0000
    692 H(1)        8.0896   14.4050   19.7422 H         1 UNK         0.0000
    693 H(2)        6.1867   15.9238   20.0238 H         1 UNK         0.0000
    694 H(3)        6.7735   17.4288   16.0457 H         1 UNK         0.0000
    695 H(4)        8.6912   15.8966   15.7668 H         1 UNK         0.0000
    696 H(5)        4.9941   18.0008   17.4335 H         1 UNK         0.0000
    697 H(6)        9.8998   14.1310   16.5147 H         1 UNK         0.0000
    698 H(7)       11.3536   11.7918   17.8820 H         1 UNK         0.0000
    699 H(8)       11.7238   13.0295   16.7453 H         1 UNK         0.0000
    700 H(9)       12.4526   12.9867   18.3375 H         1 UNK         0.0000
    701 O(1)        4.8457   22.2327   19.4795 O.3       1 UNK         0.0000
    702 O(2)       -0.1282   18.2882   18.1527 O.2       1 UNK         0.0000
    703 N(1)        0.5229   18.8125   20.2644 N.am      1 UNK         0.0000
    704 C(1)        1.6302   19.6524   20.0104 C.ar      1 UNK         0.0000
    705 C(2)        2.3530   19.6543   18.8176 C.ar      1 UNK         0.0000
    706 C(3)        3.4307   20.5210   18.6609 C.ar      1 UNK         0.0000
    707 C(4)        3.8010   21.3832   19.6898 C.ar      1 UNK         0.0000
    708 C(5)        3.0976   21.3595   20.8935 C.ar      1 UNK         0.0000
    709 C(6)        2.0198   20.4995   21.0484 C.ar      1 UNK         0.0000
    710 C(7)       -0.2845   18.2103   19.3762 C.2       1 UNK         0.0000
    711 C(8)       -1.4079   17.4088   19.9772 C.3       1 UNK         0.0000
    712 H(1)        2.0746   18.9915   18.0076 H         1 UNK         0.0000
    713 H(2)        3.9774   20.5103   17.7261 H         1 UNK         0.0000
    714 H(3)        3.3906   22.0153   21.7041 H         1 UNK         0.0000
    715 H(4)        1.4729   20.4831   21.9831 H         1 UNK         0.0000
    716 H(5)        5.1701   22.5873   20.3163 H         1 UNK         0.0000
    717 H(6)        0.2644   18.7175   21.2352 H         1 UNK         0.0000
    718 H(7)       -1.1895   16.3783   19.8678 H         1 UNK         0.0000
    719 H(8)       -1.5597   17.6160   21.0046 H         1 UNK         0.0000
    720 H(9)       -2.2885   17.5732   19.4124 H         1 UNK         0.0000
    721 O(1)        9.1737   28.2188    8.9648 O.3       1 UNK         0.0000
    722 O(2)        4.1998   32.1633    7.6380 O.2       1 UNK         0.0000
    723 N(1)        4.8508   31.6390    9.7497 N.am      1 UNK         0.0000
    724 C(1)        5.9581   30.7991    9.4956 C.ar      1 UNK         0.0000
    725 C(2)        6.6810   30.7972    8.3028 C.ar      1 UNK         0.0000
    726 C(3)        7.7586   29.9305    8.1462 C.ar      1 UNK         0.0000
    727 C(4)        8.1290   29.0683    9.1751 C.ar      1 UNK         0.0000
    728 C(5)        7.4256   29.0920   10.3788 C.ar      1 UNK         0.0000
    729 C(6)        6.3478   29.9520   10.5337 C.ar      1 UNK         0.0000
    730 C(7)        4.0435   32.2412    8.8614 C.2       1 UNK         0.0000
    731 C(8)        2.9200   33.0427    9.4624 C.3       1 UNK         0.0000
    732 H(1)        6.4025   31.4600    7.4929 H         1 UNK         0.0000
    733 H(2)        8.3054   29.9412    7.2113 H         1 UNK         0.0000
    734 H(3)        7.7186   28.4362   11.1894 H         1 UNK         0.0000
    735 H(4)        5.8009   29.9684   11.4683 H         1 UNK         0.0000
    736 H(5)        9.4980   27.8642    9.8016 H         1 UNK         0.0000
    737 H(6)        4.5923   31.7340   10.7204 H         1 UNK         0.0000
    738 H(7)        3.1385   34.0732    9.3531 H         1 UNK         0.0000
    739 H(8)        2.7683   32.8355   10.4898 H         1 UNK         0.0000
    740 H(9)        2.0395   32.8783    8.8976 H         1 UNK         0.0000
    741 O(1)       -0.9549   23.6323   14.7654 O.3       1 UNK         0.0000
    742 O(2)        4.0190   27.5768   16.0922 O.2       1 UNK         0.0000
    743 N(1)        3.3679   27.0525   13.9805 N.am      1 UNK         0.0000
    744 C(1)        2.2606   26.2126   14.2346 C.ar      1 UNK         0.0000
    745 C(2)        1.5378   26.2107   15.4274 C.ar      1 UNK         0.0000
    746 C(3)        0.4601   25.3440   15.5840 C.ar      1 UNK         0.0000
    747 C(4)        0.0898   24.4818   14.5551 C.ar      1 UNK         0.0000
    748 C(5)        0.7931   24.5055   13.3514 C.ar      1 UNK         0.0000
    749 C(6)        1.8709   25.3655   13.1965 C.ar      1 UNK         0.0000
    750 C(7)        4.1753   27.6547   14.8687 C.2       1 UNK         0.0000
    751 C(8)        5.2987   28.4562   14.2678 C.3       1 UNK         0.0000
    752 H(1)        1.8162   26.8735   16.2373 H         1 UNK         0.0000
    753 H(2)       -0.0867   25.3547   16.5188 H         1 UNK         0.0000
    754 H(3)        0.5002   23.8497   12.5408 H         1 UNK         0.0000
    755 H(4)        2.4179   25.3819   12.2618 H         1 UNK         0.0000
    756 H(5)       -1.2793   23.2777   13.9286 H         1 UNK         0.0000
    757 H(6)        3.6264   27.1475   13.0098 H         1 UNK         0.0000
    758 H(7)        5.0803   29.4867   14.3771 H         1 UNK         0.0000
    759 H(8)        5.4505   28.2490   13.2404 H         1 UNK         0.0000
    760 H(9)        6.1792   28.2918   14.8326 H         1 UNK         0.0000
    761 O(1)        3.3730   35.9922    4.2507 O.3       1 UNK         0.0000
    762 O(2)        8.3469   32.0477    5.5774 O.2       1 UNK         0.0000
    763 N(1)        7.6959   32.5720    3.4657 N.am      1 UNK         0.0000
    764 C(1)        6.5885   33.4119    3.7198 C.ar      1 UNK         0.0000
    765 C(2)        5.8657   33.4138    4.9126 C.ar      1 UNK         0.0000
    766 C(3)        4.7881   34.2805    5.0693 C.ar      1 UNK         0.0000
    767 C(4)        4.4177   35.1427    4.0404 C.ar      1 UNK         0.0000
    768 C(5)        5.1211   35.1190    2.8367 C.ar      1 UNK         0.0000
    769 C(6)        6.1989   34.2590    2.6817 C.ar      1 UNK         0.0000
    770 C(7)        8.5032   31.9698    4.3540 C.2       1 UNK         0.0000
    771 C(8)        9.6267   31.1683    3.7530 C.3       1 UNK         0.0000
    772 H(1)        6.1442   32.7510    5.7226 H         1 UNK         0.0000
    773 H(2)        4.2413   34.2698    6.0041 H         1 UNK         0.0000
    774 H(3)        4.8281   35.7748    2.0261 H         1 UNK         0.0000
    775 H(4)        6.7458   34.2426    1.7471 H         1 UNK         0.0000
    776 H(5)        3.0487   36.3468    3.4139 H         1 UNK         0.0000
    777 H(6)        7.9544   32.4770    2.4950 H         1 UNK         0.0000
    778 H(7)        9.4082   30.1378    3.8623 H         1 UNK         0.0000
    779 H(8)        9.7784   31.3755    2.7256 H         1 UNK         0.0000
    780 H(9)       10.5072   31.3327    4.3178 H         1 UNK         0.0000
    781 O(1)        2.9003   31.4057    5.4598 O.3       1 UNK         0.0000
    782 O(2)       -2.0736   27.4612    4.1331 O.2       1 UNK         0.0000
    783 N(1)       -1.4225   27.9855    6.2448 N.am      1 UNK         0.0000
    784 C(1)       -0.3152   28.8254    5.9907 C.ar      1 UNK         0.0000
    785 C(2)        0.4076   28.8273    4.7979 C.ar      1 UNK         0.0000
    786 C(3)        1.4853   29.6940    4.6412 C.ar      1 UNK         0.0000
    787 C(4)        1.8556   30.5562    5.6701 C.ar      1 UNK         0.0000
    788 C(5)        1.1523   30.5325    6.8738 C.ar      1 UNK         0.0000
    789 C(6)        0.0744   29.6725    7.0288 C.ar      1 UNK         0.0000
    790 C(7)       -2.2299   27.3833    5.3565 C.2       1 UNK         0.0000
    791 C(8)       -3.3533   26.5818    5.9575 C.3       1 UNK         0.0000
    792 H(1)        0.1292   28.1645    3.9879 H         1 UNK         0.0000
    793 H(2)        2.0321   29.6833    3.7064 H         1 UNK         0.0000
    794 H(3)        1.4452   31.1883    7.6844 H         1 UNK         0.0000
    795 H(4)       -0.4725   29.6561    7.9634 H         1 UNK         0.0000
    796 H(5)        3.2247   31.7603    6.2966 H         1 UNK         0.0000
    797 H(6)       -1.6810   27.8905    7.2155 H         1 UNK         0.0000
    798 H(7)       -3.1349   25.5513    5.8482 H         1 UNK         0.0000
    799 H(8)       -3.5051   26.7890    6.9849 H         1 UNK         0.0000
    800 H(9)       -4.2339   26.7462    5.3927 H         1 UNK         0.0000
    801 O(1)       10.1464   28.2188   15.9746 O.3       1 UNK         0.0000
    802 O(2)        5.1725   32.1633   14.6478 O.2       1 UNK         0.0000
    803 N(1)        5.8235   31.6390   16.7595 N.am      1 UNK         0.0000
    804 C(1)        6.9308   30.7991   16.5055 C.ar      1 UNK         0.0000
    805 C(2)        7.6537   30.7972   15.3126 C.ar      1 UNK         0.0000
    806 C(3)        8.7313   29.9305   15.1560 C.ar      1 UNK         0.0000
    807 C(4)        9.1016   29.0683   16.1849 C.ar      1 UNK         0.0000
    808 C(5)        8.3983   29.0920   17.3886 C.ar      1 UNK         0.0000
    809 C(6)        7.3205   29.9520   17.5435 C.ar      1 UNK         0.0000
    810 C(7)        5.0162   32.2412   15.8713 C.2       1 UNK         0.0000
    811 C(8)        3.8927   33.0427   16.4723 C.3       1 UNK         0.0000
    812 H(1)        7.3752   31.4600   14.5027 H         1 UNK         0.0000
    813 H(2)        9.2781   29.9412   14.2212 H         1 UNK         0.0000
    814 H(3)        8.6912   28.4362   18.1992 H         1 UNK         0.0000
    815 H(4)        6.7736   29.9684   18.4782 H         1 UNK         0.0000
    816 H(5)       10.4707   27.8642   16.8114 H         1 UNK         0.0000
    817 H(6)        5.5650   31.7340   17.7302 H         1 UNK         0.0000
    818 H(7)        4.1112   34.0732   16.3629 H         1 UNK         0.0000
    819 H(8)        3.7409   32.8355   17.4996 H         1 UNK         0.0000
    820 H(9)        3.0122   32.8783   15.9074 H         1 UNK         0.0000
    821 O(1)       11.5918   23.6323   21.7753 O.3       1 UNK         0.0000
    822 O(2)       16.5657   27.5768   23.1020 O.2       1 UNK         0.0000
    823 N(1)       15.9146   27.0525   20.9903 N.am      1 UNK         0.0000
    824 C(1)       14.8073   26.2126   21.2444 C.ar      1 UNK         0.0000
    825 C(2)       14.0845   26.2107   22.4372 C.ar      1 UNK         0.0000
    826 C(3)       13.0068   25.3440   22.5939 C.ar      1 UNK         0.0000
    827 C(4)       12.6365   24.4818   21.5650 C.ar      1 UNK         0.0000
    828 C(5)       13.3398   24.5055   20.3613 C.ar      1 UNK         0.0000
    829 C(6)       14.4176   25.3655   20.2063 C.ar      1 UNK         0.0000
    830 C(7)       16.7220   27.6547   21.8786 C.2       1 UNK         0.0000
    831 C(8)       17.8454   28.4562   21.2776 C.3       1 UNK         0.0000
    832 H(1)       14.3629   26.8735   23.2472 H         1 UNK         0.0000
    833 H(2)       12.4600   25.3547   23.5287 H         1 UNK         0.0000
    834 H(3)       13.0469   23.8497   19.5507 H         1 UNK         0.0000
    835 H(4)       14.9646   25.3819   19.2717 H         1 UNK         0.0000
    836 H(5)       11.2674   23.2777   20.9385 H         1 UNK         0.0000
    837 H(6)       16.1731   27.1475   20.0196 H         1 UNK         0.0000
    838 H(7)       17.6270   29.4867   21.3869 H         1 UNK         0.0000
    839 H(8)       17.9972   28.2490   20.2502 H         1 UNK         0.0000
    840 H(9)       18.7259   28.2918   21.8424 H         1 UNK         0.0000
    841 O(1)        4.3457   35.9922   11.2605 O.3       1 UNK         0.0000
    842 O(2)        9.3196   32.0477   12.5873 O.2       1 UNK         0.0000
    843 N(1)        8.6686   32.5720   10.4756 N.am      1 UNK         0.0000
    844 C(1)        7.5612   33.4119   10.7296 C.ar      1 UNK         0.0000
    845 C(2)        6.8384   33.4138   11.9225 C.ar      1 UNK         0.0000
    846 C(3)        5.7607   34.2805   12.0791 C.ar      1 UNK         0.0000
    847 C(4)        5.3904   35.1427   11.0502 C.ar      1 UNK         0.0000
    848 C(5)        6.0938   35.1190    9.8465 C.ar      1 UNK         0.0000
    849 C(6)        7.1716   34.2590    9.6916 C.ar      1 UNK         0.0000
    850 C(7)        9.4759   31.9698   11.3638 C.2       1 UNK         0.0000
    851 C(8)       10.5994   31.1683   10.7628 C.3       1 UNK         0.0000
    852 H(1)        7.1169   32.7510   12.7324 H         1 UNK         0.0000
    853 H(2)        5.2140   34.2698   13.0139 H         1 UNK         0.0000
    854 H(3)        5.8008   35.7748    9.0359 H         1 UNK         0.0000
    855 H(4)        7.7185   34.2426    8.7569 H         1 UNK         0.0000
    856 H(5)        4.0214   36.3468   10.4237 H         1 UNK         0.0000
    857 H(6)        8.9271   32.4770    9.5049 H         1 UNK         0.0000
    858 H(7)       10.3809   30.1378   10.8722 H         1 UNK         0.0000
    859 H(8)       10.7511   31.3755    9.7355 H         1 UNK         0.0000
    860 H(9)       11.4799   31.3327   11.3277 H         1 UNK         0.0000
    861 O(1)       15.4470   31.4057   12.4697 O.3       1 UNK         0.0000
    862 O(2)       10.4731   27.4612   11.1429 O.2       1 UNK         0.0000
    863 N(1)       11.1242   27.9855   13.2546 N.am      1 UNK         0.0000
    864 C(1)       12.2315   28.8254   13.0005 C.ar      1 UNK         0.0000
    865 C(2)       12.9543   28.8273   11.8077 C.ar      1 UNK         0.0000
    866 C(3)       14.0320   29.6940   11.6511 C.ar      1 UNK         0.0000
    867 C(4)       14.4023   30.5562   12.6800 C.ar      1 UNK         0.0000
    868 C(5)       13.6989   30.5325   13.8837 C.ar      1 UNK         0.0000
    869 C(6)       12.6211   29.6725   14.0386 C.ar      1 UNK         0.0000
    870 C(7)       10.3168   27.3833   12.3664 C.2       1 UNK         0.0000
    871 C(8)        9.1934   26.5818   12.9673 C.3       1 UNK         0.0000
    872 H(1)       12.6759   28.1645   10.9978 H         1 UNK         0.0000
    873 H(2)       14.5788   29.6833   10.7162 H         1 UNK         0.0000
    874 H(3)       13.9919   31.1883   14.6943 H         1 UNK         0.0000
    875 H(4)       12.0742   29.6561   14.9733 H         1 UNK         0.0000
    876 H(5)       15.7714   31.7603   13.3065 H         1 UNK         0.0000
    877 H(6)       10.8657   27.8905   14.2253 H         1 UNK         0.0000
    878 H(7)        9.4118   25.5513   12.8580 H         1 UNK         0.0000
    879 H(8)        9.0416   26.7890   13.9947 H         1 UNK         0.0000
    880 H(9)        8.3128   26.7462   12.4025 H         1 UNK         0.0000
    881 O(1)       11.1191   28.2188    1.7534 O.3       1 UNK         0.0000
    882 O(2)        6.1452   32.1633    0.4267 O.2       1 UNK         0.0000
    883 N(1)        6.7962   31.6390    2.5384 N.am      1 UNK         0.0000
    884 C(1)        7.9035   30.7991    2.2843 C.ar      1 UNK         0.0000
    885 C(2)        8.6264   30.7972    1.0915 C.ar      1 UNK         0.0000
    886 C(3)        9.7040   29.9305    0.9348 C.ar      1 UNK         0.0000
    887 C(4)       10.0743   29.0683    1.9637 C.ar      1 UNK         0.0000
    888 C(5)        9.3710   29.0920    3.1674 C.ar      1 UNK         0.0000
    889 C(6)        8.2932   29.9520    3.3223 C.ar      1 UNK         0.0000
    890 C(7)        5.9889   32.2412    1.6501 C.2       1 UNK         0.0000
    891 C(8)        4.8654   33.0427    2.2511 C.3       1 UNK         0.0000
    892 H(1)        8.3479   31.4600    0.2815 H         1 UNK         0.0000
    893 H(2)       10.2508   29.9412    0.0000 H         1 UNK         0.0000
    894 H(3)        9.6639   28.4362    3.9780 H         1 UNK         0.0000
    895 H(4)        7.7463   29.9684    4.2570 H         1 UNK         0.0000
    896 H(5)       11.4434   27.8642    2.5902 H         1 UNK         0.0000
    897 H(6)        6.5377   31.7340    3.5091 H         1 UNK         0.0000
    898 H(7)        5.0839   34.0732    2.1418 H         1 UNK         0.0000
    899 H(8)        4.7136   32.8355    3.2785 H         1 UNK         0.0000
    900 H(9)        3.9849   32.8783    1.6863 H         1 UNK         0.0000
    901 O(1)       -1.9276   23.6323    7.7556 O.3       1 UNK         0.0000
    902 O(2)        3.0463   27.5768    9.0824 O.2       1 UNK         0.0000
    903 N(1)        2.3952   27.0525    6.9707 N.am      1 UNK         0.0000
    904 C(1)        1.2879   26.2126    7.2247 C.ar      1 UNK         0.0000
    905 C(2)        0.5651   26.2107    8.4175 C.ar      1 UNK         0.0000
    906 C(3)       -0.5126   25.3440    8.5742 C.ar      1 UNK         0.0000
    907 C(4)       -0.8829   24.4818    7.5453 C.ar      1 UNK         0.0000
    908 C(5)       -0.1796   24.5055    6.3416 C.ar      1 UNK         0.0000
    909 C(6)        0.8983   25.3655    6.1867 C.ar      1 UNK         0.0000
    910 C(7)        3.2026   27.6547    7.8589 C.2       1 UNK         0.0000
    911 C(8)        4.3260   28.4562    7.2579 C.3       1 UNK         0.0000
    912 H(1)        0.8435   26.8735    9.2275 H         1 UNK         0.0000
    913 H(2)       -1.0594   25.3547    9.5090 H         1 UNK         0.0000
    914 H(3)       -0.4725   23.8497    5.5310 H         1 UNK         0.0000
    915 H(4)        1.4452   25.3819    5.2520 H         1 UNK         0.0000
    916 H(5)       -2.2520   23.2777    6.9188 H         1 UNK         0.0000
    917 H(6)        2.6537   27.1475    5.9999 H         1 UNK         0.0000
    918 H(7)        4.1076   29.4867    7.3672 H         1 UNK         0.0000
    919 H(8)        4.4778   28.2490    6.2305 H         1 UNK         0.0000
    920 H(9)        5.2066   28.2918    7.8227 H         1 UNK         0.0000
    921 O(1)        5.3184   26.8192   18.2703 O.3       1 UNK         0.0000
    922 O(2)       10.2923   22.8747   19.5971 O.2       1 UNK         0.0000
    923 N(1)        9.6413   23.3990   17.4854 N.am      1 UNK         0.0000
    924 C(1)        8.5339   24.2389   17.7395 C.ar      1 UNK         0.0000
    925 C(2)        7.8111   24.2408   18.9323 C.ar      1 UNK         0.0000
    926 C(3)        6.7334   25.1075   19.0889 C.ar      1 UNK         0.0000
    927 C(4)        6.3631   25.9697   18.0600 C.ar      1 UNK         0.0000
    928 C(5)        7.0665   25.9460   16.8563 C.ar      1 UNK         0.0000
    929 C(6)        8.1443   25.0860   16.7014 C.ar      1 UNK         0.0000
    930 C(7)       10.4486   22.7968   18.3737 C.2       1 UNK         0.0000
    931 C(8)       11.5721   21.9953   17.7727 C.3       1 UNK         0.0000
    932 H(1)        8.0896   23.5780   19.7422 H         1 UNK         0.0000
    933 H(2)        6.1867   25.0968   20.0238 H         1 UNK         0.0000
    934 H(3)        6.7735   26.6018   16.0457 H         1 UNK         0.0000
    935 H(4)        8.6912   25.0696   15.7668 H         1 UNK         0.0000
    936 H(5)        4.9941   27.1738   17.4335 H         1 UNK         0.0000
    937 H(6)        9.8998   23.3040   16.5147 H         1 UNK         0.0000
    938 H(7)       11.3536   20.9648   17.8820 H         1 UNK         0.0000
    939 H(8)       11.7238   22.2025   16.7453 H         1 UNK         0.0000
    940 H(9)       12.4526   22.1597   18.3375 H         1 UNK         0.0000
    941 O(1)        4.8457   31.4057   19.4795 O.3       1 UNK         0.0000
    942 O(2)       -0.1282   27.4612   18.1527 O.2       1 UNK         0.0000
    943 N(1)        0.5229   27.9855   20.2644 N.am      1 UNK         0.0000
    944 C(1)        1.6302   28.8254   20.0104 C.ar      1 UNK         0.0000
    945 C(2)        2.3530   28.8273   18.8176 C.ar      1 UNK         0.0000
    946 C(3)        3.4307   29.6940   18.6609 C.ar      1 UNK         0.0000
    947 C(4)        3.8010   30.5562   19.6898 C.ar      1 UNK         0.0000
    948 C(5)        3.0976   30.5325   20.8935 C.ar      1 UNK         0.0000
    949 C(6)        2.0198   29.6725   21.0484 C.ar      1 UNK         0.0000
    950 C(7)       -0.2845   27.3833   19.3762 C.2       1 UNK         0.0000
    951 C(8)       -1.4079   26.5818   19.9772 C.3       1 UNK         0.0000
    952 H(1)        2.0746   28.1645   18.0076 H         1 UNK         0.0000
    953 H(2)        3.9774   29.6833   17.7261 H         1 UNK         0.0000
    954 H(3)        3.3906   31.1883   21.7041 H         1 UNK         0.0000
    955 H(4)        1.4729   29.6561   21.9831 H         1 UNK         0.0000
    956 H(5)        5.1701   31.7603   20.3163 H         1 UNK         0.0000
    957 H(6)        0.2644   27.8905   21.2352 H         1 UNK         0.0000
    958 H(7)       -1.1895   25.5513   19.8678 H         1 UNK         0.0000
    959 H(8)       -1.5597   26.7890   21.0046 H         1 UNK         0.0000
    960 H(9)       -2.2885   26.7462   19.4124 H         1 UNK         0.0000
    961 O(1)        9.1737   37.3918    8.9648 O.3       1 UNK         0.0000
    962 O(2)        4.1998   41.3363    7.6380 O.2       1 UNK         0.0000
    963 N(1)        4.8508   40.8120    9.7497 N.am      1 UNK         0.0000
    964 C(1)        5.9581   39.9721    9.4956 C.ar      1 UNK         0.0000
    965 C(2)        6.6810   39.9702    8.3028 C.ar      1 UNK         0.0000
    966 C(3)        7.7586   39.1035    8.1462 C.ar      1 UNK         0.0000
    967 C(4)        8.1290   38.2413    9.1751 C.ar      1 UNK         0.0000
    968 C(5)        7.4256   38.2650   10.3788 C.ar      1 UNK         0.0000
    969 C(6)        6.3478   39.1250   10.5337 C.ar      1 UNK         0.0000
    970 C(7)        4.0435   41.4142    8.8614 C.2       1 UNK         0.0000
    971 C(8)        2.9200   42.2157    9.4624 C.3       1 UNK         0.0000
    972 H(1)        6.4025   40.6330    7.4929 H         1 UNK         0.0000
    973 H(2)        8.3054   39.1142    7.2113 H         1 UNK         0.0000
    974 H(3)        7.7186   37.6092   11.1894 H         1 UNK         0.0000
    975 H(4)        5.8009   39.1414   11.4683 H         1 UNK         0.0000
    976 H(5)        9.4980   37.0372    9.8016 H         1 UNK         0.0000
    977 H(6)        4.5923   40.9070   10.7204 H         1 UNK         0.0000
    978 H(7)        3.1385   43.2462    9.3531 H         1 UNK         0.0000
    979 H(8)        2.7683   42.0085   10.4898 H         1 UNK         0.0000
    980 H(9)        2.0395   42.0513    8.8976 H         1 UNK         0.0000
    981 O(1)       -0.9549   32.8053   14.7654 O.3       1 UNK         0.0000
    982 O(2)        4.0190   36.7498   16.0922 O.2       1 UNK         0.0000
    983 N(1)        3.3679   36.2255   13.9805 N.am      1 UNK         0.0000
    984 C(1)        2.2606   35.3856   14.2346 C.ar      1 UNK         0.0000
    985 C(2)        1.5378   35.3837   15.4274 C.ar      1 UNK         0.0000
    986 C(3)        0.4601   34.5170   15.5840 C.ar      1 UNK         0.0000
    987 C(4)        0.0898   33.6548   14.5551 C.ar      1 UNK         0.0000
    988 C(5)        0.7931   33.6785   13.3514 C.ar      1 UNK         0.0000
    989 C(6)        1.8709   34.5385   13.1965 C.ar      1 UNK         0.0000
    990 C(7)        4.1753   36.8277   14.8687 C.2       1 UNK         0.0000
    991 C(8)        5.2987   37.6292   14.2678 C.3       1 UNK         0.0000
    992 H(1)        1.8162   36.0465   16.2373 H         1 UNK         0.0000
    993 H(2)       -0.0867   34.5277   16.5188 H         1 UNK         0.0000
    994 H(3)        0.5002   33.0227   12.5408 H         1 UNK         0.0000
    995 H(4)        2.4179   34.5549   12.2618 H         1 UNK         0.0000
    996 H(5)       -1.2793   32.4507   13.9286 H         1 UNK         0.0000
    997 H(6)        3.6264   36.3205   13.0098 H         1 UNK         0.0000
    998 H(7)        5.0803   38.6597   14.3771 H         1 UNK         0.0000
    999 H(8)        5.4505   37.4220   13.2404 H         1 UNK         0.0000
   1000 H(9)        6.1792   37.4648   14.8326 H         1 UNK         0.0000
   1001 O(1)        3.3730   45.1652    4.2507 O.3       1 UNK         0.0000
   1002 O(2)        8.3469   41.2207    5.5774 O.2       1 UNK         0.0000
   1003 N(1)        7.6959   41.7450    3.4657 N.am      1 UNK         0.0000
   1004 C(1)        6.5885   42.5849    3.7198 C.ar      1 UNK         0.0000
   1005 C(2)        5.8657   42.5868    4.9126 C.ar      1 UNK         0.0000
   1006 C(3)        4.7881   43.4535    5.0693 C.ar      1 UNK         0.0000
   1007 C(4)        4.4177   44.3157    4.0404 C.ar      1 UNK         0.0000
   1008 C(5)        5.1211   44.2920    2.8367 C.ar      1 UNK         0.0000
   1009 C(6)        6.1989   43.4320    2.6817 C.ar      1 UNK         0.0000
   1010 C(7)        8.5032   41.1428    4.3540 C.2       1 UNK         0.0000
   1011 C(8)        9.6267   40.3413    3.7530 C.3       1 UNK         0.0000
   1012 H(1)        6.1442   41.9240    5.7226 H         1 UNK         0.0000
   1013 H(2)        4.2413   43.4428    6.0041 H         1 UNK         0.0000
   1014 H(3)        4.8281   44.9478    2.0261 H         1 UNK         0.0000
   1015 H(4)        6.7458   43.4156    1.7471 H         1 UNK         0.0000
   1016 H(5)        3.0487   45.5198    3.4139 H         1 UNK         0.0000
   1017 H(6)        7.9544   41.6500    2.4950 H         1 UNK         0.0000
   1018 H(7)        9.4082   39.3108    3.8623 H         1 UNK         0.0000
   1019 H(8)        9.7784   40.5485    2.7256 H         1 UNK         0.0000
   1020 H(9)       10.5072   40.5057    4.3178 H         1 UNK         0.0000
   1021 O(1)        2.9003   40.5787    5.4598 O.3       1 UNK         0.0000
   1022 O(2)       -2.0736   36.6342    4.1331 O.2       1 UNK         0.0000
   1023 N(1)       -1.4225   37.1585    6.2448 N.am      1 UNK         0.0000
   1024 C(1)       -0.3152   37.9984    5.9907 C.ar      1 UNK         0.0000
   1025 C(2)        0.4076   38.0003    4.7979 C.ar      1 UNK         0.0000
   1026 C(3)        1.4853   38.8670    4.6412 C.ar      1 UNK         0.0000
   1027 C(4)        1.8556   39.7292    5.6701 C.ar      1 UNK         0.0000
   1028 C(5)        1.1523   39.7055    6.8738 C.ar      1 UNK         0.0000
   1029 C(6)        0.0744   38.8455    7.0288 C.ar      1 UNK         0.0000
   1030 C(7)       -2.2299   36.5563    5.3565 C.2       1 UNK         0.0000
   1031 C(8)       -3.3533   35.7548    5.9575 C.3       1 UNK         0.0000
   1032 H(1)        0.1292   37.3375    3.9879 H         1 UNK         0.0000
   1033 H(2)        2.0321   38.8563    3.7064 H         1 UNK         0.0000
   1034 H(3)        1.4452   40.3613    7.6844 H         1 UNK         0.0000
   1035 H(4)       -0.4725   38.8291    7.9634 H         1 UNK         0.0000
   1036 H(5)        3.2247   40.9333    6.2966 H         1 UNK         0.0000
   1037 H(6)       -1.6810   37.0635    7.2155 H         1 UNK         0.0000
   1038 H(7)       -3.1349   34.7243    5.8482 H         1 UNK         0.0000
   1039 H(8)       -3.5051   35.9620    6.9849 H         1 UNK         0.0000
   1040 H(9)       -4.2339   35.9192    5.3927 H         1 UNK         0.0000
   1041 O(1)       10.1464   37.3918   15.9746 O.3       1 UNK         0.0000
   1042 O(2)        5.1725   41.3363   14.6478 O.2       1 UNK         0.0000
   1043 N(1)        5.8235   40.8120   16.7595 N.am      1 UNK         0.0000
   1044 C(1)        6.9308   39.9721   16.5055 C.ar      1 UNK         0.0000
   1045 C(2)        7.6537   39.9702   15.3126 C.ar      1 UNK         0.0000
   1046 C(3)        8.7313   39.1035   15.1560 C.ar      1 UNK         0.0000
   1047 C(4)        9.1016   38.2413   16.1849 C.ar      1 UNK         0.0000
   1048 C(5)        8.3983   38.2650   17.3886 C.ar      1 UNK         0.0000
   1049 C(6)        7.3205   39.1250   17.5435 C.ar      1 UNK         0.0000
   1050 C(7)        5.0162   41.4142   15.8713 C.2       1 UNK         0.0000
   1051 C(8)        3.8927   42.2157   16.4723 C.3       1 UNK         0.0000
   1052 H(1)        7.3752   40.6330   14.5027 H         1 UNK         0.0000
   1053 H(2)        9.2781   39.1142   14.2212 H         1 UNK         0.0000
   1054 H(3)        8.6912   37.6092   18.1992 H         1 UNK         0.0000
   1055 H(4)        6.7736   39.1414   18.4782 H         1 UNK         0.0000
   1056 H(5)       10.4707   37.0372   16.8114 H         1 UNK         0.0000
   1057 H(6)        5.5650   40.9070   17.7302 H         1 UNK         0.0000
   1058 H(7)        4.1112   43.2462   16.3629 H         1 UNK         0.0000
   1059 H(8)        3.7409   42.0085   17.4996 H         1 UNK         0.0000
   1060 H(9)        3.0122   42.0513   15.9074 H         1 UNK         0.0000
   1061 O(1)       11.5918   32.8053   21.7753 O.3       1 UNK         0.0000
   1062 O(2)       16.5657   36.7498   23.1020 O.2       1 UNK         0.0000
   1063 N(1)       15.9146   36.2255   20.9903 N.am      1 UNK         0.0000
   1064 C(1)       14.8073   35.3856   21.2444 C.ar      1 UNK         0.0000
   1065 C(2)       14.0845   35.3837   22.4372 C.ar      1 UNK         0.0000
   1066 C(3)       13.0068   34.5170   22.5939 C.ar      1 UNK         0.0000
   1067 C(4)       12.6365   33.6548   21.5650 C.ar      1 UNK         0.0000
   1068 C(5)       13.3398   33.6785   20.3613 C.ar      1 UNK         0.0000
   1069 C(6)       14.4176   34.5385   20.2063 C.ar      1 UNK         0.0000
   1070 C(7)       16.7220   36.8277   21.8786 C.2       1 UNK         0.0000
   1071 C(8)       17.8454   37.6292   21.2776 C.3       1 UNK         0.0000
   1072 H(1)       14.3629   36.0465   23.2472 H         1 UNK         0.0000
   1073 H(2)       12.4600   34.5277   23.5287 H         1 UNK         0.0000
   1074 H(3)       13.0469   33.0227   19.5507 H         1 UNK         0.0000
   1075 H(4)       14.9646   34.5549   19.2717 H         1 UNK         0.0000
   1076 H(5)       11.2674   32.4507   20.9385 H         1 UNK         0.0000
   1077 H(6)       16.1731   36.3205   20.0196 H         1 UNK         0.0000
   1078 H(7)       17.6270   38.6597   21.3869 H         1 UNK         0.0000
   1079 H(8)       17.9972   37.4220   20.2502 H         1 UNK         0.0000
   1080 H(9)       18.7259   37.4648   21.8424 H         1 UNK         0.0000
   1081 O(1)        4.3457   45.1652   11.2605 O.3       1 UNK         0.0000
   1082 O(2)        9.3196   41.2207   12.5873 O.2       1 UNK         0.0000
   1083 N(1)        8.6686   41.7450   10.4756 N.am      1 UNK         0.0000
   1084 C(1)        7.5612   42.5849   10.7296 C.ar      1 UNK         0.0000
   1085 C(2)        6.8384   42.5868   11.9225 C.ar      1 UNK         0.0000
   1086 C(3)        5.7607   43.4535   12.0791 C.ar      1 UNK         0.0000
   1087 C(4)        5.3904   44.3157   11.0502 C.ar      1 UNK         0.0000
   1088 C(5)        6.0938   44.2920    9.8465 C.ar      1 UNK         0.0000
   1089 C(6)        7.1716   43.4320    9.6916 C.ar      1 UNK         0.0000
   1090 C(7)        9.4759   41.1428   11.3638 C.2       1 UNK         0.0000
   1091 C(8)       10.5994   40.3413   10.7628 C.3       1 UNK         0.0000
   1092 H(1)        7.1169   41.9240   12.7324 H         1 UNK         0.0000
   1093 H(2)        5.2140   43.4428   13.0139 H         1 UNK         0.0000
   1094 H(3)        5.8008   44.9478    9.0359 H         1 UNK         0.0000
   1095 H(4)        7.7185   43.4156    8.7569 H         1 UNK         0.0000
   1096 H(5)        4.0214   45.5198   10.4237 H         1 UNK         0.0000
   1097 H(6)        8.9271   41.6500    9.5049 H         1 UNK         0.0000
   1098 H(7)       10.3809   39.3108   10.8722 H         1 UNK         0.0000
   1099 H(8)       10.7511   40.5485    9.7355 H         1 UNK         0.0000
   1100 H(9)       11.4799   40.5057   11.3277 H         1 UNK         0.0000
   1101 O(1)       15.4470   40.5787   12.4697 O.3       1 UNK         0.0000
   1102 O(2)       10.4731   36.6342   11.1429 O.2       1 UNK         0.0000
   1103 N(1)       11.1242   37.1585   13.2546 N.am      1 UNK         0.0000
   1104 C(1)       12.2315   37.9984   13.0005 C.ar      1 UNK         0.0000
   1105 C(2)       12.9543   38.0003   11.8077 C.ar      1 UNK         0.0000
   1106 C(3)       14.0320   38.8670   11.6511 C.ar      1 UNK         0.0000
   1107 C(4)       14.4023   39.7292   12.6800 C.ar      1 UNK         0.0000
   1108 C(5)       13.6989   39.7055   13.8837 C.ar      1 UNK         0.0000
   1109 C(6)       12.6211   38.8455   14.0386 C.ar      1 UNK         0.0000
   1110 C(7)       10.3168   36.5563   12.3664 C.2       1 UNK         0.0000
   1111 C(8)        9.1934   35.7548   12.9673 C.3       1 UNK         0.0000
   1112 H(1)       12.6759   37.3375   10.9978 H         1 UNK         0.0000
   1113 H(2)       14.5788   38.8563   10.7162 H         1 UNK         0.0000
   1114 H(3)       13.9919   40.3613   14.6943 H         1 UNK         0.0000
   1115 H(4)       12.0742   38.8291   14.9733 H         1 UNK         0.0000
   1116 H(5)       15.7714   40.9333   13.3065 H         1 UNK         0.0000
   1117 H(6)       10.8657   37.0635   14.2253 H         1 UNK         0.0000
   1118 H(7)        9.4118   34.7243   12.8580 H         1 UNK         0.0000
   1119 H(8)        9.0416   35.9620   13.9947 H         1 UNK         0.0000
   1120 H(9)        8.3128   35.9192   12.4025 H         1 UNK         0.0000
   1121 O(1)       11.1191   37.3918    1.7534 O.3       1 UNK         0.0000
   1122 O(2)        6.1452   41.3363    0.4267 O.2       1 UNK         0.0000
   1123 N(1)        6.7962   40.8120    2.5384 N.am      1 UNK         0.0000
   1124 C(1)        7.9035   39.9721    2.2843 C.ar      1 UNK         0.0000
   1125 C(2)        8.6264   39.9702    1.0915 C.ar      1 UNK         0.0000
   1126 C(3)        9.7040   39.1035    0.9348 C.ar      1 UNK         0.0000
   1127 C(4)       10.0743   38.2413    1.9637 C.ar      1 UNK         0.0000
   1128 C(5)        9.3710   38.2650    3.1674 C.ar      1 UNK         0.0000
   1129 C(6)        8.2932   39.1250    3.3223 C.ar      1 UNK         0.0000
   1130 C(7)        5.9889   41.4142    1.6501 C.2       1 UNK         0.0000
   1131 C(8)        4.8654   42.2157    2.2511 C.3       1 UNK         0.0000
   1132 H(1)        8.3479   40.6330    0.2815 H         1 UNK         0.0000
   1133 H(2)       10.2508   39.1142    0.0000 H         1 UNK         0.0000
   1134 H(3)        9.6639   37.6092    3.9780 H         1 UNK         0.0000
   1135 H(4)        7.7463   39.1414    4.2570 H         1 UNK         0.0000
   1136 H(5)       11.4434   37.0372    2.5902 H         1 UNK         0.0000
   1137 H(6)        6.5377   40.9070    3.5091 H         1 UNK         0.0000
   1138 H(7)        5.0839   43.2462    2.1418 H         1 UNK         0.0000
   1139 H(8)        4.7136   42.0085    3.2785 H         1 UNK         0.0000
   1140 H(9)        3.9849   42.0513    1.6863 H         1 UNK         0.0000
   1141 O(1)       -1.9276   32.8053    7.7556 O.3       1 UNK         0.0000
   1142 O(2)        3.0463   36.7498    9.0824 O.2       1 UNK         0.0000
   1143 N(1)        2.3952   36.2255    6.9707 N.am      1 UNK         0.0000
   1144 C(1)        1.2879   35.3856    7.2247 C.ar      1 UNK         0.0000
   1145 C(2)        0.5651   35.3837    8.4175 C.ar      1 UNK         0.0000
   1146 C(3)       -0.5126   34.5170    8.5742 C.ar      1 UNK         0.0000
   1147 C(4)       -0.8829   33.6548    7.5453 C.ar      1 UNK         0.0000
   1148 C(5)       -0.1796   33.6785    6.3416 C.ar      1 UNK         0.0000
   1149 C(6)        0.8983   34.5385    6.1867 C.ar      1 UNK         0.0000
   1150 C(7)        3.2026   36.8277    7.8589 C.2       1 UNK         0.0000
   1151 C(8)        4.3260   37.6292    7.2579 C.3       1 UNK         0.0000
   1152 H(1)        0.8435   36.0465    9.2275 H         1 UNK         0.0000
   1153 H(2)       -1.0594   34.5277    9.5090 H         1 UNK         0.0000
   1154 H(3)       -0.4725   33.0227    5.5310 H         1 UNK         0.0000
   1155 H(4)        1.4452   34.5549    5.2520 H         1 UNK         0.0000
   1156 H(5)       -2.2520   32.4507    6.9188 H         1 UNK         0.0000
   1157 H(6)        2.6537   36.3205    5.9999 H         1 UNK         0.0000
   1158 H(7)        4.1076   38.6597    7.3672 H         1 UNK         0.0000
   1159 H(8)        4.4778   37.4220    6.2305 H         1 UNK         0.0000
   1160 H(9)        5.2066   37.4648    7.8227 H         1 UNK         0.0000
   1161 O(1)        5.3184   35.9922   18.2703 O.3       1 UNK         0.0000
   1162 O(2)       10.2923   32.0477   19.5971 O.2       1 UNK         0.0000
   1163 N(1)        9.6413   32.5720   17.4854 N.am      1 UNK         0.0000
   1164 C(1)        8.5339   33.4119   17.7395 C.ar      1 UNK         0.0000
   1165 C(2)        7.8111   33.4138   18.9323 C.ar      1 UNK         0.0000
   1166 C(3)        6.7334   34.2805   19.0889 C.ar      1 UNK         0.0000
   1167 C(4)        6.3631   35.1427   18.0600 C.ar      1 UNK         0.0000
   1168 C(5)        7.0665   35.1190   16.8563 C.ar      1 UNK         0.0000
   1169 C(6)        8.1443   34.2590   16.7014 C.ar      1 UNK         0.0000
   1170 C(7)       10.4486   31.9698   18.3737 C.2       1 UNK         0.0000
   1171 C(8)       11.5721   31.1683   17.7727 C.3       1 UNK         0.0000
   1172 H(1)        8.0896   32.7510   19.7422 H         1 UNK         0.0000
   1173 H(2)        6.1867   34.2698   20.0238 H         1 UNK         0.0000
   1174 H(3)        6.7735   35.7748   16.0457 H         1 UNK         0.0000
   1175 H(4)        8.6912   34.2426   15.7668 H         1 UNK         0.0000
   1176 H(5)        4.9941   36.3468   17.4335 H         1 UNK         0.0000
   1177 H(6)        9.8998   32.4770   16.5147 H         1 UNK         0.0000
   1178 H(7)       11.3536   30.1378   17.8820 H         1 UNK         0.0000
   1179 H(8)       11.7238   31.3755   16.7453 H         1 UNK         0.0000
   1180 H(9)       12.4526   31.3327   18.3375 H         1 UNK         0.0000
   1181 O(1)        4.8457   40.5787   19.4795 O.3       1 UNK         0.0000
   1182 O(2)       -0.1282   36.6342   18.1527 O.2       1 UNK         0.0000
   1183 N(1)        0.5229   37.1585   20.2644 N.am      1 UNK         0.0000
   1184 C(1)        1.6302   37.9984   20.0104 C.ar      1 UNK         0.0000
   1185 C(2)        2.3530   38.0003   18.8176 C.ar      1 UNK         0.0000
   1186 C(3)        3.4307   38.8670   18.6609 C.ar      1 UNK         0.0000
   1187 C(4)        3.8010   39.7292   19.6898 C.ar      1 UNK         0.0000
   1188 C(5)        3.0976   39.7055   20.8935 C.ar      1 UNK         0.0000
   1189 C(6)        2.0198   38.8455   21.0484 C.ar      1 UNK         0.0000
   1190 C(7)       -0.2845   36.5563   19.3762 C.2       1 UNK         0.0000
   1191 C(8)       -1.4079   35.7548   19.9772 C.3       1 UNK         0.0000
   1192 H(1)        2.0746   37.3375   18.0076 H         1 UNK         0.0000
   1193 H(2)        3.9774   38.8563   17.7261 H         1 UNK         0.0000
   1194 H(3)        3.3906   40.3613   21.7041 H         1 UNK         0.0000
   1195 H(4)        1.4729   38.8291   21.9831 H         1 UNK         0.0000
   1196 H(5)        5.1701   40.9333   20.3163 H         1 UNK         0.0000
   1197 H(6)        0.2644   37.0635   21.2352 H         1 UNK         0.0000
   1198 H(7)       -1.1895   34.7243   19.8678 H         1 UNK         0.0000
   1199 H(8)       -1.5597   35.9620   21.0046 H         1 UNK         0.0000
   1200 H(9)       -2.2885   35.9192   19.4124 H         1 UNK         0.0000
   1201 O(1)        9.1737   46.5648    8.9648 O.3       1 UNK         0.0000
   1202 O(2)        4.1998   50.5093    7.6380 O.2       1 UNK         0.0000
   1203 N(1)        4.8508   49.9850    9.7497 N.am      1 UNK         0.0000
   1204 C(1)        5.9581   49.1451    9.4956 C.ar      1 UNK         0.0000
   1205 C(2)        6.6810   49.1432    8.3028 C.ar      1 UNK         0.0000
   1206 C(3)        7.7586   48.2765    8.1462 C.ar      1 UNK         0.0000
   1207 C(4)        8.1290   47.4143    9.1751 C.ar      1 UNK         0.0000
   1208 C(5)        7.4256   47.4380   10.3788 C.ar      1 UNK         0.0000
   1209 C(6)        6.3478   48.2980   10.5337 C.ar      1 UNK         0.0000
   1210 C(7)        4.0435   50.5872    8.8614 C.2       1 UNK         0.0000
   1211 C(8)        2.9200   51.3887    9.4624 C.3       1 UNK         0.0000
   1212 H(1)        6.4025   49.8060    7.4929 H         1 UNK         0.0000
   1213 H(2)        8.3054   48.2872    7.2113 H         1 UNK         0.0000
   1214 H(3)        7.7186   46.7822   11.1894 H         1 UNK         0.0000
   1215 H(4)        5.8009   48.3144   11.4683 H         1 UNK         0.0000
   1216 H(5)        9.4980   46.2102    9.8016 H         1 UNK         0.0000
   1217 H(6)        4.5923   50.0801   10.7204 H         1 UNK         0.0000
   1218 H(7)        3.1385   52.4192    9.3531 H         1 UNK         0.0000
   1219 H(8)        2.7683   51.1815   10.4898 H         1 UNK         0.0000
   1220 H(9)        2.0395   51.2243    8.8976 H         1 UNK         0.0000
   1221 O(1)       -0.9549   41.9783   14.7654 O.3       1 UNK         0.0000
   1222 O(2)        4.0190   45.9228   16.0922 O.2       1 UNK         0.0000
   1223 N(1)        3.3679   45.3985   13.9805 N.am      1 UNK         0.0000
   1224 C(1)        2.2606   44.5586   14.2346 C.ar      1 UNK         0.0000
   1225 C(2)        1.5378   44.5567   15.4274 C.ar      1 UNK         0.0000
   1226 C(3)        0.4601   43.6900   15.5840 C.ar      1 UNK         0.0000
   1227 C(4)        0.0898   42.8278   14.5551 C.ar      1 UNK         0.0000
   1228 C(5)        0.7931   42.8515   13.3514 C.ar      1 UNK         0.0000
   1229 C(6)        1.8709   43.7115   13.1965 C.ar      1 UNK         0.0000
   1230 C(7)        4.1753   46.0007   14.8687 C.2       1 UNK         0.0000
   1231 C(8)        5.2987   46.8022   14.2678 C.3       1 UNK         0.0000
   1232 H(1)        1.8162   45.2195   16.2373 H         1 UNK         0.0000
   1233 H(2)       -0.0867   43.7007   16.5188 H         1 UNK         0.0000
   1234 H(3)        0.5002   42.1957   12.5408 H         1 UNK         0.0000
   1235 H(4)        2.4179   43.7279   12.2618 H         1 UNK         0.0000
   1236 H(5)       -1.2793   41.6237   13.9286 H         1 UNK         0.0000
   1237 H(6)        3.6264   45.4936   13.0098 H         1 UNK         0.0000
   1238 H(7)        5.0803   47.8327   14.3771 H         1 UNK         0.0000
   1239 H(8)        5.4505   46.5950   13.2404 H         1 UNK         0.0000
   1240 H(9)        6.1792   46.6378   14.8326 H         1 UNK         0.0000
   1241 O(1)        3.3730   54.3382    4.2507 O.3       1 UNK         0.0000
   1242 O(2)        8.3469   50.3937    5.5774 O.2       1 UNK         0.0000
   1243 N(1)        7.6959   50.9180    3.4657 N.am      1 UNK         0.0000
   1244 C(1)        6.5885   51.7579    3.7198 C.ar      1 UNK         0.0000
   1245 C(2)        5.8657   51.7598    4.9126 C.ar      1 UNK         0.0000
   1246 C(3)        4.7881   52.6265    5.0693 C.ar      1 UNK         0.0000
   1247 C(4)        4.4177   53.4887    4.0404 C.ar      1 UNK         0.0000
   1248 C(5)        5.1211   53.4650    2.8367 C.ar      1 UNK         0.0000
   1249 C(6)        6.1989   52.6050    2.6817 C.ar      1 UNK         0.0000
   1250 C(7)        8.5032   50.3158    4.3540 C.2       1 UNK         0.0000
   1251 C(8)        9.6267   49.5143    3.7530 C.3       1 UNK         0.0000
   1252 H(1)        6.1442   51.0970    5.7226 H         1 UNK         0.0000
   1253 H(2)        4.2413   52.6158    6.0041 H         1 UNK         0.0000
   1254 H(3)        4.8281   54.1208    2.0261 H         1 UNK         0.0000
   1255 H(4)        6.7458   52.5886    1.7471 H         1 UNK         0.0000
   1256 H(5)        3.0487   54.6928    3.4139 H         1 UNK         0.0000
   1257 H(6)        7.9544   50.8230    2.4950 H         1 UNK         0.0000
   1258 H(7)        9.4082   48.4838    3.8623 H         1 UNK         0.0000
   1259 H(8)        9.7784   49.7215    2.7256 H         1 UNK         0.0000
   1260 H(9)       10.5072   49.6787    4.3178 H         1 UNK         0.0000
   1261 O(1)        2.9003   49.7517    5.4598 O.3       1 UNK         0.0000
   1262 O(2)       -2.0736   45.8072    4.1331 O.2       1 UNK         0.0000
   1263 N(1)       -1.4225   46.3315    6.2448 N.am      1 UNK         0.0000
   1264 C(1)       -0.3152   47.1714    5.9907 C.ar      1 UNK         0.0000
   1265 C(2)        0.4076   47.1733    4.7979 C.ar      1 UNK         0.0000
   1266 C(3)        1.4853   48.0400    4.6412 C.ar      1 UNK         0.0000
   1267 C(4)        1.8556   48.9022    5.6701 C.ar      1 UNK         0.0000
   1268 C(5)        1.1523   48.8785    6.8738 C.ar      1 UNK         0.0000
   1269 C(6)        0.0744   48.0185    7.0288 C.ar      1 UNK         0.0000
   1270 C(7)       -2.2299   45.7293    5.3565 C.2       1 UNK         0.0000
   1271 C(8)       -3.3533   44.9278    5.9575 C.3       1 UNK         0.0000
   1272 H(1)        0.1292   46.5105    3.9879 H         1 UNK         0.0000
   1273 H(2)        2.0321   48.0293    3.7064 H         1 UNK         0.0000
   1274 H(3)        1.4452   49.5343    7.6844 H         1 UNK         0.0000
   1275 H(4)       -0.4725   48.0021    7.9634 H         1 UNK         0.0000
   1276 H(5)        3.2247   50.1063    6.2966 H         1 UNK         0.0000
   1277 H(6)       -1.6810   46.2365    7.2155 H         1 UNK         0.0000
   1278 H(7)       -3.1349   43.8973    5.8482 H         1 UNK         0.0000
   1279 H(8)       -3.5051   45.1350    6.9849 H         1 UNK         0.0000
   1280 H(9)       -4.2339   45.0922    5.3927 H         1 UNK         0.0000
   1281 O(1)       10.1464   46.5648   15.9746 O.3       1 UNK         0.0000
   1282 O(2)        5.1725   50.5093   14.6478 O.2       1 UNK         0.0000
   1283 N(1)        5.8235   49.9850   16.7595 N.am      1 UNK         0.0000
   1284 C(1)        6.9308   49.1451   16.5055 C.ar      1 UNK         0.0000
   1285 C(2)        7.6537   49.1432   15.3126 C.ar      1 UNK         0.0000
   1286 C(3)        8.7313   48.2765   15.1560 C.ar      1 UNK         0.0000
   1287 C(4)        9.1016   47.4143   16.1849 C.ar      1 UNK         0.0000
   1288 C(5)        8.3983   47.4380   17.3886 C.ar      1 UNK         0.0000
   1289 C(6)        7.3205   48.2980   17.5435 C.ar      1 UNK         0.0000
   1290 C(7)        5.0162   50.5872   15.8713 C.2       1 UNK         0.0000
   1291 C(8)        3.8927   51.3887   16.4723 C.3       1 UNK         0.0000
   1292 H(1)        7.3752   49.8060   14.5027 H         1 UNK         0.0000
   1293 H(2)        9.2781   48.2872   14.2212 H         1 UNK         0.0000
   1294 H(3)        8.6912   46.7822   18.1992 H         1 UNK         0.0000
   1295 H(4)        6.7736   48.3144   18.4782 H         1 UNK         0.0000
   1296 H(5)       10.4707   46.2102   16.8114 H         1 UNK         0.0000
   1297 H(6)        5.5650   50.0801   17.7302 H         1 UNK         0.0000
   1298 H(7)        4.1112   52.4192   16.3629 H         1 UNK         0.0000
   1299 H(8)        3.7409   51.1815   17.4996 H         1 UNK         0.0000
   1300 H(9)        3.0122   51.2243   15.9074 H         1 UNK         0.0000
   1301 O(1)       11.5918   41.9783   21.7753 O.3       1 UNK         0.0000
   1302 O(2)       16.5657   45.9228   23.1020 O.2       1 UNK         0.0000
   1303 N(1)       15.9146   45.3985   20.9903 N.am      1 UNK         0.0000
   1304 C(1)       14.8073   44.5586   21.2444 C.ar      1 UNK         0.0000
   1305 C(2)       14.0845   44.5567   22.4372 C.ar      1 UNK         0.0000
   1306 C(3)       13.0068   43.6900   22.5939 C.ar      1 UNK         0.0000
   1307 C(4)       12.6365   42.8278   21.5650 C.ar      1 UNK         0.0000
   1308 C(5)       13.3398   42.8515   20.3613 C.ar      1 UNK         0.0000
   1309 C(6)       14.4176   43.7115   20.2063 C.ar      1 UNK         0.0000
   1310 C(7)       16.7220   46.0007   21.8786 C.2       1 UNK         0.0000
   1311 C(8)       17.8454   46.8022   21.2776 C.3       1 UNK         0.0000
   1312 H(1)       14.3629   45.2195   23.2472 H         1 UNK         0.0000
   1313 H(2)       12.4600   43.7007   23.5287 H         1 UNK         0.0000
   1314 H(3)       13.0469   42.1957   19.5507 H         1 UNK         0.0000
   1315 H(4)       14.9646   43.7279   19.2717 H         1 UNK         0.0000
   1316 H(5)       11.2674   41.6237   20.9385 H         1 UNK         0.0000
   1317 H(6)       16.1731   45.4936   20.0196 H         1 UNK         0.0000
   1318 H(7)       17.6270   47.8327   21.3869 H         1 UNK         0.0000
   1319 H(8)       17.9972   46.5950   20.2502 H         1 UNK         0.0000
   1320 H(9)       18.7259   46.6378   21.8424 H         1 UNK         0.0000
   1321 O(1)        4.3457   54.3382   11.2605 O.3       1 UNK         0.0000
   1322 O(2)        9.3196   50.3937   12.5873 O.2       1 UNK         0.0000
   1323 N(1)        8.6686   50.9180   10.4756 N.am      1 UNK         0.0000
   1324 C(1)        7.5612   51.7579   10.7296 C.ar      1 UNK         0.0000
   1325 C(2)        6.8384   51.7598   11.9225 C.ar      1 UNK         0.0000
   1326 C(3)        5.7607   52.6265   12.0791 C.ar      1 UNK         0.0000
   1327 C(4)        5.3904   53.4887   11.0502 C.ar      1 UNK         0.0000
   1328 C(5)        6.0938   53.4650    9.8465 C.ar      1 UNK         0.0000
   1329 C(6)        7.1716   52.6050    9.6916 C.ar      1 UNK         0.0000
   1330 C(7)        9.4759   50.3158   11.3638 C.2       1 UNK         0.0000
   1331 C(8)       10.5994   49.5143   10.7628 C.3       1 UNK         0.0000
   1332 H(1)        7.1169   51.0970   12.7324 H         1 UNK         0.0000
   1333 H(2)        5.2140   52.6158   13.0139 H         1 UNK         0.0000
   1334 H(3)        5.8008   54.1208    9.0359 H         1 UNK         0.0000
   1335 H(4)        7.7185   52.5886    8.7569 H         1 UNK         0.0000
   1336 H(5)        4.0214   54.6928   10.4237 H         1 UNK         0.0000
   1337 H(6)        8.9271   50.8230    9.5049 H         1 UNK         0.0000
   1338 H(7)       10.3809   48.4838   10.8722 H         1 UNK         0.0000
   1339 H(8)       10.7511   49.7215    9.7355 H         1 UNK         0.0000
   1340 H(9)       11.4799   49.6787   11.3277 H         1 UNK         0.0000
   1341 O(1)       15.4470   49.7517   12.4697 O.3       1 UNK         0.0000
   1342 O(2)       10.4731   45.8072   11.1429 O.2       1 UNK         0.0000
   1343 N(1)       11.1242   46.3315   13.2546 N.am      1 UNK         0.0000
   1344 C(1)       12.2315   47.1714   13.0005 C.ar      1 UNK         0.0000
   1345 C(2)       12.9543   47.1733   11.8077 C.ar      1 UNK         0.0000
   1346 C(3)       14.0320   48.0400   11.6511 C.ar      1 UNK         0.0000
   1347 C(4)       14.4023   48.9022   12.6800 C.ar      1 UNK         0.0000
   1348 C(5)       13.6989   48.8785   13.8837 C.ar      1 UNK         0.0000
   1349 C(6)       12.6211   48.0185   14.0386 C.ar      1 UNK         0.0000
   1350 C(7)       10.3168   45.7293   12.3664 C.2       1 UNK         0.0000
   1351 C(8)        9.1934   44.9278   12.9673 C.3       1 UNK         0.0000
   1352 H(1)       12.6759   46.5105   10.9978 H         1 UNK         0.0000
   1353 H(2)       14.5788   48.0293   10.7162 H         1 UNK         0.0000
   1354 H(3)       13.9919   49.5343   14.6943 H         1 UNK         0.0000
   1355 H(4)       12.0742   48.0021   14.9733 H         1 UNK         0.0000
   1356 H(5)       15.7714   50.1063   13.3065 H         1 UNK         0.0000
   1357 H(6)       10.8657   46.2365   14.2253 H         1 UNK         0.0000
   1358 H(7)        9.4118   43.8973   12.8580 H         1 UNK         0.0000
   1359 H(8)        9.0416   45.1350   13.9947 H         1 UNK         0.0000
   1360 H(9)        8.3128   45.0922   12.4025 H         1 UNK         0.0000
   1361 O(1)       11.1191   46.5648    1.7534 O.3       1 UNK         0.0000
   1362 O(2)        6.1452   50.5093    0.4267 O.2       1 UNK         0.0000
   1363 N(1)        6.7962   49.9850    2.5384 N.am      1 UNK         0.0000
   1364 C(1)        7.9035   49.1451    2.2843 C.ar      1 UNK         0.0000
   1365 C(2)        8.6264   49.1432    1.0915 C.ar      1 UNK         0.0000
   1366 C(3)        9.7040   48.2765    0.9348 C.ar      1 UNK         0.0000
   1367 C(4)       10.0743   47.4143    1.9637 C.ar      1 UNK         0.0000
   1368 C(5)        9.3710   47.4380    3.1674 C.ar      1 UNK         0.0000
   1369 C(6)        8.2932   48.2980    3.3223 C.ar      1 UNK         0.0000
   1370 C(7)        5.9889   50.5872    1.6501 C.2       1 UNK         0.0000
   1371 C(8)        4.8654   51.3887    2.2511 C.3       1 UNK         0.0000
   1372 H(1)        8.3479   49.8060    0.2815 H         1 UNK         0.0000
   1373 H(2)       10.2508   48.2872    0.0000 H         1 UNK         0.0000
   1374 H(3)        9.6639   46.7822    3.9780 H         1 UNK         0.0000
   1375 H(4)        7.7463   48.3144    4.2570 H         1 UNK         0.0000
   1376 H(5)       11.4434   46.2102    2.5902 H         1 UNK         0.0000
   1377 H(6)        6.5377   50.0801    3.5091 H         1 UNK         0.0000
   1378 H(7)        5.0839   52.4192    2.1418 H         1 UNK         0.0000
   1379 H(8)        4.7136   51.1815    3.2785 H         1 UNK         0.0000
   1380 H(9)        3.9849   51.2243    1.6863 H         1 UNK         0.0000
   1381 O(1)       -1.9276   41.9783    7.7556 O.3       1 UNK         0.0000
   1382 O(2)        3.0463   45.9228    9.0824 O.2       1 UNK         0.0000
   1383 N(1)        2.3952   45.3985    6.9707 N.am      1 UNK         0.0000
   1384 C(1)        1.2879   44.5586    7.2247 C.ar      1 UNK         0.0000
   1385 C(2)        0.5651   44.5567    8.4175 C.ar      1 UNK         0.0000
   1386 C(3)       -0.5126   43.6900    8.5742 C.ar      1 UNK         0.0000
   1387 C(4)       -0.8829   42.8278    7.5453 C.ar      1 UNK         0.0000
   1388 C(5)       -0.1796   42.8515    6.3416 C.ar      1 UNK         0.0000
   1389 C(6)        0.8983   43.7115    6.1867 C.ar      1 UNK         0.0000
   1390 C(7)        3.2026   46.0007    7.8589 C.2       1 UNK         0.0000
   1391 C(8)        4.3260   46.8022    7.2579 C.3       1 UNK         0.0000
   1392 H(1)        0.8435   45.2195    9.2275 H         1 UNK         0.0000
   1393 H(2)       -1.0594   43.7007    9.5090 H         1 UNK         0.0000
   1394 H(3)       -0.4725   42.1957    5.5310 H         1 UNK         0.0000
   1395 H(4)        1.4452   43.7279    5.2520 H         1 UNK         0.0000
   1396 H(5)       -2.2520   41.6237    6.9188 H         1 UNK         0.0000
   1397 H(6)        2.6537   45.4936    5.9999 H         1 UNK         0.0000
   1398 H(7)        4.1076   47.8327    7.3672 H         1 UNK         0.0000
   1399 H(8)        4.4778   46.5950    6.2305 H         1 UNK         0.0000
   1400 H(9)        5.2066   46.6378    7.8227 H         1 UNK         0.0000
   1401 O(1)        5.3184   45.1652   18.2703 O.3       1 UNK         0.0000
   1402 O(2)       10.2923   41.2207   19.5971 O.2       1 UNK         0.0000
   1403 N(1)        9.6413   41.7450   17.4854 N.am      1 UNK         0.0000
   1404 C(1)        8.5339   42.5849   17.7395 C.ar      1 UNK         0.0000
   1405 C(2)        7.8111   42.5868   18.9323 C.ar      1 UNK         0.0000
   1406 C(3)        6.7334   43.4535   19.0889 C.ar      1 UNK         0.0000
   1407 C(4)        6.3631   44.3157   18.0600 C.ar      1 UNK         0.0000
   1408 C(5)        7.0665   44.2920   16.8563 C.ar      1 UNK         0.0000
   1409 C(6)        8.1443   43.4320   16.7014 C.ar      1 UNK         0.0000
   1410 C(7)       10.4486   41.1428   18.3737 C.2       1 UNK         0.0000
   1411 C(8)       11.5721   40.3413   17.7727 C.3       1 UNK         0.0000
   1412 H(1)        8.0896   41.9240   19.7422 H         1 UNK         0.0000
   1413 H(2)        6.1867   43.4428   20.0238 H         1 UNK         0.0000
   1414 H(3)        6.7735   44.9478   16.0457 H         1 UNK         0.0000
   1415 H(4)        8.6912   43.4156   15.7668 H         1 UNK         0.0000
   1416 H(5)        4.9941   45.5198   17.4335 H         1 UNK         0.0000
   1417 H(6)        9.8998   41.6500   16.5147 H         1 UNK         0.0000
   1418 H(7)       11.3536   39.3108   17.8820 H         1 UNK         0.0000
   1419 H(8)       11.7238   40.5485   16.7453 H         1 UNK         0.0000
   1420 H(9)       12.4526   40.5057   18.3375 H         1 UNK         0.0000
   1421 O(1)        4.8457   49.7517   19.4795 O.3       1 UNK         0.0000
   1422 O(2)       -0.1282   45.8072   18.1527 O.2       1 UNK         0.0000
   1423 N(1)        0.5229   46.3315   20.2644 N.am      1 UNK         0.0000
   1424 C(1)        1.6302   47.1714   20.0104 C.ar      1 UNK         0.0000
   1425 C(2)        2.3530   47.1733   18.8176 C.ar      1 UNK         0.0000
   1426 C(3)        3.4307   48.0400   18.6609 C.ar      1 UNK         0.0000
   1427 C(4)        3.8010   48.9022   19.6898 C.ar      1 UNK         0.0000
   1428 C(5)        3.0976   48.8785   20.8935 C.ar      1 UNK         0.0000
   1429 C(6)        2.0198   48.0185   21.0484 C.ar      1 UNK         0.0000
   1430 C(7)       -0.2845   45.7293   19.3762 C.2       1 UNK         0.0000
   1431 C(8)       -1.4079   44.9278   19.9772 C.3       1 UNK         0.0000
   1432 H(1)        2.0746   46.5105   18.0076 H         1 UNK         0.0000
   1433 H(2)        3.9774   48.0293   17.7261 H         1 UNK         0.0000
   1434 H(3)        3.3906   49.5343   21.7041 H         1 UNK         0.0000
   1435 H(4)        1.4729   48.0021   21.9831 H         1 UNK         0.0000
   1436 H(5)        5.1701   50.1063   20.3163 H         1 UNK         0.0000
   1437 H(6)        0.2644   46.2365   21.2352 H         1 UNK         0.0000
   1438 H(7)       -1.1895   43.8973   19.8678 H         1 UNK         0.0000
   1439 H(8)       -1.5597   45.1350   21.0046 H         1 UNK         0.0000
   1440 H(9)       -2.2885   45.0922   19.4124 H         1 UNK         0.0000
   1441 O(1)       20.7477    0.6998    8.9648 O.3       1 UNK         0.0000
   1442 O(2)       15.7738    4.6443    7.6380 O.2       1 UNK         0.0000
   1443 N(1)       16.4248    4.1200    9.7497 N.am      1 UNK         0.0000
   1444 C(1)       17.5321    3.2801    9.4956 C.ar      1 UNK         0.0000
   1445 C(2)       18.2550    3.2782    8.3028 C.ar      1 UNK         0.0000
   1446 C(3)       19.3326    2.4115    8.1462 C.ar      1 UNK         0.0000
   1447 C(4)       19.7030    1.5493    9.1751 C.ar      1 UNK         0.0000
   1448 C(5)       18.9996    1.5730   10.3788 C.ar      1 UNK         0.0000
   1449 C(6)       17.9218    2.4330   10.5337 C.ar      1 UNK         0.0000
   1450 C(7)       15.6175    4.7222    8.8614 C.2       1 UNK         0.0000
   1451 C(8)       14.4940    5.5237    9.4624 C.3       1 UNK         0.0000
   1452 H(1)       17.9765    3.9410    7.4929 H         1 UNK         0.0000
   1453 H(2)       19.8794    2.4222    7.2113 H         1 UNK         0.0000
   1454 H(3)       19.2926    0.9172   11.1894 H         1 UNK         0.0000
   1455 H(4)       17.3749    2.4494   11.4683 H         1 UNK         0.0000
   1456 H(5)       21.0720    0.3452    9.8016 H         1 UNK         0.0000
   1457 H(6)       16.1663    4.2150   10.7204 H         1 UNK         0.0000
   1458 H(7)       14.7125    6.5542    9.3531 H         1 UNK         0.0000
   1459 H(8)       14.3423    5.3165   10.4898 H         1 UNK         0.0000
   1460 H(9)       13.6135    5.3593    8.8976 H         1 UNK         0.0000
   1461 O(1)       10.6191   -3.8867   14.7654 O.3       1 UNK         0.0000
   1462 O(2)       15.5930    0.0578   16.0922 O.2       1 UNK         0.0000
   1463 N(1)       14.9419   -0.4665   13.9805 N.am      1 UNK         0.0000
   1464 C(1)       13.8346   -1.3064   14.2346 C.ar      1 UNK         0.0000
   1465 C(2)       13.1118   -1.3083   15.4274 C.ar      1 UNK         0.0000
   1466 C(3)       12.0341   -2.1750   15.5840 C.ar      1 UNK         0.0000
   1467 C(4)       11.6638   -3.0372   14.5551 C.ar      1 UNK         0.0000
   1468 C(5)       12.3671   -3.0135   13.3514 C.ar      1 UNK         0.0000
   1469 C(6)       13.4450   -2.1535   13.1965 C.ar      1 UNK         0.0000
   1470 C(7)       15.7493    0.1357   14.8687 C.2       1 UNK         0.0000
   1471 C(8)       16.8727    0.9372   14.2678 C.3       1 UNK         0.0000
   1472 H(1)       13.3902   -0.6455   16.2373 H         1 UNK         0.0000
   1473 H(2)       11.4873   -2.1643   16.5188 H         1 UNK         0.0000
   1474 H(3)       12.0742   -3.6693   12.5408 H         1 UNK         0.0000
   1475 H(4)       13.9919   -2.1371   12.2618 H         1 UNK         0.0000
   1476 H(5)       10.2947   -4.2413   13.9286 H         1 UNK         0.0000
   1477 H(6)       15.2004   -0.3715   13.0098 H         1 UNK         0.0000
   1478 H(7)       16.6543    1.9677   14.3771 H         1 UNK         0.0000
   1479 H(8)       17.0245    0.7300   13.2404 H         1 UNK         0.0000
   1480 H(9)       17.7532    0.7728   14.8326 H         1 UNK         0.0000
   1481 O(1)       14.9470    8.4732    4.2507 O.3       1 UNK         0.0000
   1482 O(2)       19.9209    4.5287    5.5774 O.2       1 UNK         0.0000
   1483 N(1)       19.2699    5.0530    3.4657 N.am      1 UNK         0.0000
   1484 C(1)       18.1625    5.8929    3.7198 C.ar      1 UNK         0.0000
   1485 C(2)       17.4397    5.8948    4.9126 C.ar      1 UNK         0.0000
   1486 C(3)       16.3620    6.7615    5.0693 C.ar      1 UNK         0.0000
   1487 C(4)       15.9917    7.6237    4.0404 C.ar      1 UNK         0.0000
   1488 C(5)       16.6951    7.6000    2.8367 C.ar      1 UNK         0.0000
   1489 C(6)       17.7729    6.7400    2.6817 C.ar      1 UNK         0.0000
   1490 C(7)       20.0772    4.4508    4.3540 C.2       1 UNK         0.0000
   1491 C(8)       21.2007    3.6493    3.7530 C.3       1 UNK         0.0000
   1492 H(1)       17.7182    5.2320    5.7226 H         1 UNK         0.0000
   1493 H(2)       15.8153    6.7508    6.0041 H         1 UNK         0.0000
   1494 H(3)       16.4021    8.2558    2.0261 H         1 UNK         0.0000
   1495 H(4)       18.3198    6.7236    1.7471 H         1 UNK         0.0000
   1496 H(5)       14.6227    8.8278    3.4139 H         1 UNK         0.0000
   1497 H(6)       19.5284    4.9580    2.4950 H         1 UNK         0.0000
   1498 H(7)       20.9822    2.6188    3.8623 H         1 UNK         0.0000
   1499 H(8)       21.3524    3.8565    2.7256 H         1 UNK         0.0000
   1500 H(9)       22.0812    3.8137    4.3178 H         1 UNK         0.0000
   1501 O(1)       14.4743    3.8867    5.4598 O.3       1 UNK         0.0000
   1502 O(2)        9.5004   -0.0578    4.1331 O.2       1 UNK         0.0000
   1503 N(1)       10.1515    0.4665    6.2448 N.am      1 UNK         0.0000
   1504 C(1)       11.2588    1.3064    5.9907 C.ar      1 UNK         0.0000
   1505 C(2)       11.9816    1.3083    4.7979 C.ar      1 UNK         0.0000
   1506 C(3)       13.0593    2.1750    4.6412 C.ar      1 UNK         0.0000
   1507 C(4)       13.4296    3.0372    5.6701 C.ar      1 UNK         0.0000
   1508 C(5)       12.7263    3.0135    6.8738 C.ar      1 UNK         0.0000
   1509 C(6)       11.6484    2.1535    7.0288 C.ar      1 UNK         0.0000
   1510 C(7)        9.3441   -0.1357    5.3565 C.2       1 UNK         0.0000
   1511 C(8)        8.2207   -0.9372    5.9575 C.3       1 UNK         0.0000
   1512 H(1)       11.7032    0.6455    3.9879 H         1 UNK         0.0000
   1513 H(2)       13.6061    2.1643    3.7064 H         1 UNK         0.0000
   1514 H(3)       13.0192    3.6693    7.6844 H         1 UNK         0.0000
   1515 H(4)       11.1015    2.1371    7.9634 H         1 UNK         0.0000
   1516 H(5)       14.7987    4.2413    6.2966 H         1 UNK         0.0000
   1517 H(6)        9.8930    0.3715    7.2155 H         1 UNK         0.0000
   1518 H(7)        8.4391   -1.9677    5.8482 H         1 UNK         0.0000
   1519 H(8)        8.0689   -0.7300    6.9849 H         1 UNK         0.0000
   1520 H(9)        7.3401   -0.7728    5.3927 H         1 UNK         0.0000
   1521 O(1)       21.7204    0.6998   15.9746 O.3       1 UNK         0.0000
   1522 O(2)       16.7465    4.6443   14.6478 O.2       1 UNK         0.0000
   1523 N(1)       17.3975    4.1200   16.7595 N.am      1 UNK         0.0000
   1524 C(1)       18.5048    3.2801   16.5055 C.ar      1 UNK         0.0000
   1525 C(2)       19.2277    3.2782   15.3126 C.ar      1 UNK         0.0000
   1526 C(3)       20.3053    2.4115   15.1560 C.ar      1 UNK         0.0000
   1527 C(4)       20.6756    1.5493   16.1849 C.ar      1 UNK         0.0000
   1528 C(5)       19.9723    1.5730   17.3886 C.ar      1 UNK         0.0000
   1529 C(6)       18.8945    2.4330   17.5435 C.ar      1 UNK         0.0000
   1530 C(7)       16.5902    4.7222   15.8713 C.2       1 UNK         0.0000
   1531 C(8)       15.4667    5.5237   16.4723 C.3       1 UNK         0.0000
   1532 H(1)       18.9492    3.9410   14.5027 H         1 UNK         0.0000
   1533 H(2)       20.8521    2.4222   14.2212 H         1 UNK         0.0000
   1534 H(3)       20.2653    0.9172   18.1992 H         1 UNK         0.0000
   1535 H(4)       18.3476    2.4494   18.4782 H         1 UNK         0.0000
   1536 H(5)       22.0447    0.3452   16.8114 H         1 UNK         0.0000
   1537 H(6)       17.1390    4.2150   17.7302 H         1 UNK         0.0000
   1538 H(7)       15.6852    6.5542   16.3629 H         1 UNK         0.0000
   1539 H(8)       15.3149    5.3165   17.4996 H         1 UNK         0.0000
   1540 H(9)       14.5862    5.3593   15.9074 H         1 UNK         0.0000
   1541 O(1)       23.1658   -3.8867   21.7753 O.3       1 UNK         0.0000
   1542 O(2)       28.1396    0.0578   23.1020 O.2       1 UNK         0.0000
   1543 N(1)       27.4886   -0.4665   20.9903 N.am      1 UNK         0.0000
   1544 C(1)       26.3813   -1.3064   21.2444 C.ar      1 UNK         0.0000
   1545 C(2)       25.6585   -1.3083   22.4372 C.ar      1 UNK         0.0000
   1546 C(3)       24.5808   -2.1750   22.5939 C.ar      1 UNK         0.0000
   1547 C(4)       24.2105   -3.0372   21.5650 C.ar      1 UNK         0.0000
   1548 C(5)       24.9138   -3.0135   20.3613 C.ar      1 UNK         0.0000
   1549 C(6)       25.9916   -2.1535   20.2063 C.ar      1 UNK         0.0000
   1550 C(7)       28.2960    0.1357   21.8786 C.2       1 UNK         0.0000
   1551 C(8)       29.4194    0.9372   21.2776 C.3       1 UNK         0.0000
   1552 H(1)       25.9369   -0.6455   23.2472 H         1 UNK         0.0000
   1553 H(2)       24.0340   -2.1643   23.5287 H         1 UNK         0.0000
   1554 H(3)       24.6209   -3.6693   19.5507 H         1 UNK         0.0000
   1555 H(4)       26.5386   -2.1371   19.2717 H         1 UNK         0.0000
   1556 H(5)       22.8414   -4.2413   20.9385 H         1 UNK         0.0000
   1557 H(6)       27.7471   -0.3715   20.0196 H         1 UNK         0.0000
   1558 H(7)       29.2010    1.9677   21.3869 H         1 UNK         0.0000
   1559 H(8)       29.5712    0.7300   20.2502 H         1 UNK         0.0000
   1560 H(9)       30.2999    0.7728   21.8424 H         1 UNK         0.0000
   1561 O(1)       15.9197    8.4732   11.2605 O.3       1 UNK         0.0000
   1562 O(2)       20.8936    4.5287   12.5873 O.2       1 UNK         0.0000
   1563 N(1)       20.2426    5.0530   10.4756 N.am      1 UNK         0.0000
   1564 C(1)       19.1352    5.8929   10.7296 C.ar      1 UNK         0.0000
   1565 C(2)       18.4124    5.8948   11.9225 C.ar      1 UNK         0.0000
   1566 C(3)       17.3347    6.7615   12.0791 C.ar      1 UNK         0.0000
   1567 C(4)       16.9644    7.6237   11.0502 C.ar      1 UNK         0.0000
   1568 C(5)       17.6678    7.6000    9.8465 C.ar      1 UNK         0.0000
   1569 C(6)       18.7456    6.7400    9.6916 C.ar      1 UNK         0.0000
   1570 C(7)       21.0499    4.4508   11.3638 C.2       1 UNK         0.0000
   1571 C(8)       22.1734    3.6493   10.7628 C.3       1 UNK         0.0000
   1572 H(1)       18.6909    5.2320   12.7324 H         1 UNK         0.0000
   1573 H(2)       16.7880    6.7508   13.0139 H         1 UNK         0.0000
   1574 H(3)       17.3748    8.2558    9.0359 H         1 UNK         0.0000
   1575 H(4)       19.2925    6.7236    8.7569 H         1 UNK         0.0000
   1576 H(5)       15.5954    8.8278   10.4237 H         1 UNK         0.0000
   1577 H(6)       20.5011    4.9580    9.5049 H         1 UNK         0.0000
   1578 H(7)       21.9549    2.6188   10.8722 H         1 UNK         0.0000
   1579 H(8)       22.3251    3.8565    9.7355 H         1 UNK         0.0000
   1580 H(9)       23.0539    3.8137   11.3277 H         1 UNK         0.0000
   1581 O(1)       27.0210    3.8867   12.4697 O.3       1 UNK         0.0000
   1582 O(2)       22.0471   -0.0578   11.1429 O.2       1 UNK         0.0000
   1583 N(1)       22.6982    0.4665   13.2546 N.am      1 UNK         0.0000
   1584 C(1)       23.8055    1.3064   13.0005 C.ar      1 UNK         0.0000
   1585 C(2)       24.5283    1.3083   11.8077 C.ar      1 UNK         0.0000
   1586 C(3)       25.6060    2.1750   11.6511 C.ar      1 UNK         0.0000
   1587 C(4)       25.9763    3.0372   12.6800 C.ar      1 UNK         0.0000
   1588 C(5)       25.2729    3.0135   13.8837 C.ar      1 UNK         0.0000
   1589 C(6)       24.1951    2.1535   14.0386 C.ar      1 UNK         0.0000
   1590 C(7)       21.8908   -0.1357   12.3664 C.2       1 UNK         0.0000
   1591 C(8)       20.7674   -0.9372   12.9673 C.3       1 UNK         0.0000
   1592 H(1)       24.2499    0.6455   10.9978 H         1 UNK         0.0000
   1593 H(2)       26.1528    2.1643   10.7162 H         1 UNK         0.0000
   1594 H(3)       25.5659    3.6693   14.6943 H         1 UNK         0.0000
   1595 H(4)       23.6482    2.1371   14.9733 H         1 UNK         0.0000
   1596 H(5)       27.3454    4.2413   13.3065 H         1 UNK         0.0000
   1597 H(6)       22.4397    0.3715   14.2253 H         1 UNK         0.0000
   1598 H(7)       20.9858   -1.9677   12.8580 H         1 UNK         0.0000
   1599 H(8)       20.6156   -0.7300   13.9947 H         1 UNK         0.0000
   1600 H(9)       19.8868   -0.7728   12.4025 H         1 UNK         0.0000
   1601 O(1)       22.6931    0.6998    1.7534 O.3       1 UNK         0.0000
   1602 O(2)       17.7192    4.6443    0.4267 O.2       1 UNK         0.0000
   1603 N(1)       18.3702    4.1200    2.5384 N.am      1 UNK         0.0000
   1604 C(1)       19.4775    3.2801    2.2843 C.ar      1 UNK         0.0000
   1605 C(2)       20.2004    3.2782    1.0915 C.ar      1 UNK         0.0000
   1606 C(3)       21.2780    2.4115    0.9348 C.ar      1 UNK         0.0000
   1607 C(4)       21.6483    1.5493    1.9637 C.ar      1 UNK         0.0000
   1608 C(5)       20.9450    1.5730    3.1674 C.ar      1 UNK         0.0000
   1609 C(6)       19.8672    2.4330    3.3223 C.ar      1 UNK         0.0000
   1610 C(7)       17.5629    4.7222    1.6501 C.2       1 UNK         0.0000
   1611 C(8)       16.4394    5.5237    2.2511 C.3       1 UNK         0.0000
   1612 H(1)       19.9219    3.9410    0.2815 H         1 UNK         0.0000
   1613 H(2)       21.8248    2.4222    0.0000 H         1 UNK         0.0000
   1614 H(3)       21.2379    0.9172    3.9780 H         1 UNK         0.0000
   1615 H(4)       19.3203    2.4494    4.2570 H         1 UNK         0.0000
   1616 H(5)       23.0174    0.3452    2.5902 H         1 UNK         0.0000
   1617 H(6)       18.1117    4.2150    3.5091 H         1 UNK         0.0000
   1618 H(7)       16.6579    6.5542    2.1418 H         1 UNK         0.0000
   1619 H(8)       16.2876    5.3165    3.2785 H         1 UNK         0.0000
   1620 H(9)       15.5589    5.3593    1.6863 H         1 UNK         0.0000
   1621 O(1)        9.6464   -3.8867    7.7556 O.3       1 UNK         0.0000
   1622 O(2)       14.6203    0.0578    9.0824 O.2       1 UNK         0.0000
   1623 N(1)       13.9692   -0.4665    6.9707 N.am      1 UNK         0.0000
   1624 C(1)       12.8619   -1.3064    7.2247 C.ar      1 UNK         0.0000
   1625 C(2)       12.1391   -1.3083    8.4175 C.ar      1 UNK         0.0000
   1626 C(3)       11.0614   -2.1750    8.5742 C.ar      1 UNK         0.0000
   1627 C(4)       10.6911   -3.0372    7.5453 C.ar      1 UNK         0.0000
   1628 C(5)       11.3944   -3.0135    6.3416 C.ar      1 UNK         0.0000
   1629 C(6)       12.4723   -2.1535    6.1867 C.ar      1 UNK         0.0000
   1630 C(7)       14.7766    0.1357    7.8589 C.2       1 UNK         0.0000
   1631 C(8)       15.9000    0.9372    7.2579 C.3       1 UNK         0.0000
   1632 H(1)       12.4175   -0.6455    9.2275 H         1 UNK         0.0000
   1633 H(2)       10.5146   -2.1643    9.5090 H         1 UNK         0.0000
   1634 H(3)       11.1015   -3.6693    5.5310 H         1 UNK         0.0000
   1635 H(4)       13.0192   -2.1371    5.2520 H         1 UNK         0.0000
   1636 H(5)        9.3220   -4.2413    6.9188 H         1 UNK         0.0000
   1637 H(6)       14.2277   -0.3715    5.9999 H         1 UNK         0.0000
   1638 H(7)       15.6816    1.9677    7.3672 H         1 UNK         0.0000
   1639 H(8)       16.0518    0.7300    6.2305 H         1 UNK         0.0000
   1640 H(9)       16.7806    0.7728    7.8227 H         1 UNK         0.0000
   1641 O(1)       16.8924   -0.6998   18.2703 O.3       1 UNK         0.0000
   1642 O(2)       21.8663   -4.6443   19.5971 O.2       1 UNK         0.0000
   1643 N(1)       21.2153   -4.1200   17.4854 N.am      1 UNK         0.0000
   1644 C(1)       20.1079   -3.2801   17.7395 C.ar      1 UNK         0.0000
   1645 C(2)       19.3851   -3.2782   18.9323 C.ar      1 UNK         0.0000
   1646 C(3)       18.3074   -2.4115   19.0889 C.ar      1 UNK         0.0000
   1647 C(4)       17.9371   -1.5493   18.0600 C.ar      1 UNK         0.0000
   1648 C(5)       18.6405   -1.5730   16.8563 C.ar      1 UNK         0.0000
   1649 C(6)       19.7183   -2.4330   16.7014 C.ar      1 UNK         0.0000
   1650 C(7)       22.0226   -4.7222   18.3737 C.2       1 UNK         0.0000
   1651 C(8)       23.1461   -5.5237   17.7727 C.3       1 UNK         0.0000
   1652 H(1)       19.6636   -3.9410   19.7422 H         1 UNK         0.0000
   1653 H(2)       17.7607   -2.4222   20.0238 H         1 UNK         0.0000
   1654 H(3)       18.3475   -0.9172   16.0457 H         1 UNK         0.0000
   1655 H(4)       20.2652   -2.4494   15.7668 H         1 UNK         0.0000
   1656 H(5)       16.5681   -0.3452   17.4335 H         1 UNK         0.0000
   1657 H(6)       21.4738   -4.2150   16.5147 H         1 UNK         0.0000
   1658 H(7)       22.9276   -6.5542   17.8820 H         1 UNK         0.0000
   1659 H(8)       23.2978   -5.3165   16.7453 H         1 UNK         0.0000
   1660 H(9)       24.0266   -5.3593   18.3375 H         1 UNK         0.0000
   1661 O(1)       16.4197    3.8867   19.4795 O.3       1 UNK         0.0000
   1662 O(2)       11.4458   -0.0578   18.1527 O.2       1 UNK         0.0000
   1663 N(1)       12.0969    0.4665   20.2644 N.am      1 UNK         0.0000
   1664 C(1)       13.2042    1.3064   20.0104 C.ar      1 UNK         0.0000
   1665 C(2)       13.9270    1.3083   18.8176 C.ar      1 UNK         0.0000
   1666 C(3)       15.0047    2.1750   18.6609 C.ar      1 UNK         0.0000
   1667 C(4)       15.3750    3.0372   19.6898 C.ar      1 UNK         0.0000
   1668 C(5)       14.6716    3.0135   20.8935 C.ar      1 UNK         0.0000
   1669 C(6)       13.5938    2.1535   21.0484 C.ar      1 UNK         0.0000
   1670 C(7)       11.2895   -0.1357   19.3762 C.2       1 UNK         0.0000
   1671 C(8)       10.1661   -0.9372   19.9772 C.3       1 UNK         0.0000
   1672 H(1)       13.6486    0.6455   18.0076 H         1 UNK         0.0000
   1673 H(2)       15.5514    2.1643   17.7261 H         1 UNK         0.0000
   1674 H(3)       14.9646    3.6693   21.7041 H         1 UNK         0.0000
   1675 H(4)       13.0469    2.1371   21.9831 H         1 UNK         0.0000
   1676 H(5)       16.7441    4.2413   20.3163 H         1 UNK         0.0000
   1677 H(6)       11.8384    0.3715   21.2352 H         1 UNK         0.0000
   1678 H(7)       10.3845   -1.9677   19.8678 H         1 UNK         0.0000
   1679 H(8)       10.0143   -0.7300   21.0046 H         1 UNK         0.0000
   1680 H(9)        9.2855   -0.7728   19.4124 H         1 UNK         0.0000
   1681 O(1)       20.7477    9.8728    8.9648 O.3       1 UNK         0.0000
   1682 O(2)       15.7738   13.8173    7.6380 O.2       1 UNK         0.0000
   1683 N(1)       16.4248   13.2930    9.7497 N.am      1 UNK         0.0000
   1684 C(1)       17.5321   12.4531    9.4956 C.ar      1 UNK         0.0000
   1685 C(2)       18.2550   12.4512    8.3028 C.ar      1 UNK         0.0000
   1686 C(3)       19.3326   11.5845    8.1462 C.ar      1 UNK         0.0000
   1687 C(4)       19.7030   10.7223    9.1751 C.ar      1 UNK         0.0000
   1688 C(5)       18.9996   10.7460   10.3788 C.ar      1 UNK         0.0000
   1689 C(6)       17.9218   11.6060   10.5337 C.ar      1 UNK         0.0000
   1690 C(7)       15.6175   13.8952    8.8614 C.2       1 UNK         0.0000
   1691 C(8)       14.4940   14.6967    9.4624 C.3       1 UNK         0.0000
   1692 H(1)       17.9765   13.1140    7.4929 H         1 UNK         0.0000
   1693 H(2)       19.8794   11.5952    7.2113 H         1 UNK         0.0000
   1694 H(3)       19.2926   10.0902   11.1894 H         1 UNK         0.0000
   1695 H(4)       17.3749   11.6224   11.4683 H         1 UNK         0.0000
   1696 H(5)       21.0720    9.5182    9.8016 H         1 UNK         0.0000
   1697 H(6)       16.1663   13.3880   10.7204 H         1 UNK         0.0000
   1698 H(7)       14.7125   15.7272    9.3531 H         1 UNK         0.0000
   1699 H(8)       14.3423   14.4895   10.4898 H         1 UNK         0.0000
   1700 H(9)       13.6135   14.5323    8.8976 H         1 UNK         0.0000
   1701 O(1)       10.6191    5.2863   14.7654 O.3       1 UNK         0.0000
   1702 O(2)       15.5930    9.2308   16.0922 O.2       1 UNK         0.0000
   1703 N(1)       14.9419    8.7065   13.9805 N.am      1 UNK         0.0000
   1704 C(1)       13.8346    7.8666   14.2346 C.ar      1 UNK         0.0000
   1705 C(2)       13.1118    7.8647   15.4274 C.ar      1 UNK         0.0000
   1706 C(3)       12.0341    6.9980   15.5840 C.ar      1 UNK         0.0000
   1707 C(4)       11.6638    6.1358   14.5551 C.ar      1 UNK         0.0000
   1708 C(5)       12.3671    6.1595   13.3514 C.ar      1 UNK         0.0000
   1709 C(6)       13.4450    7.0195   13.1965 C.ar      1 UNK         0.0000
   1710 C(7)       15.7493    9.3087   14.8687 C.2       1 UNK         0.0000
   1711 C(8)       16.8727   10.1102   14.2678 C.3       1 UNK         0.0000
   1712 H(1)       13.3902    8.5275   16.2373 H         1 UNK         0.0000
   1713 H(2)       11.4873    7.0087   16.5188 H         1 UNK         0.0000
   1714 H(3)       12.0742    5.5037   12.5408 H         1 UNK         0.0000
   1715 H(4)       13.9919    7.0359   12.2618 H         1 UNK         0.0000
   1716 H(5)       10.2947    4.9317   13.9286 H         1 UNK         0.0000
   1717 H(6)       15.2004    8.8015   13.0098 H         1 UNK         0.0000
   1718 H(7)       16.6543   11.1407   14.3771 H         1 UNK         0.0000
   1719 H(8)       17.0245    9.9030   13.2404 H         1 UNK         0.0000
   1720 H(9)       17.7532    9.9458   14.8326 H         1 UNK         0.0000
   1721 O(1)       14.9470   17.6462    4.2507 O.3       1 UNK         0.0000
   1722 O(2)       19.9209   13.7017    5.5774 O.2       1 UNK         0.0000
   1723 N(1)       19.2699   14.2260    3.4657 N.am      1 UNK         0.0000
   1724 C(1)       18.1625   15.0659    3.7198 C.ar      1 UNK         0.0000
   1725 C(2)       17.4397   15.0678    4.9126 C.ar      1 UNK         0.0000
   1726 C(3)       16.3620   15.9345    5.0693 C.ar      1 UNK         0.0000
   1727 C(4)       15.9917   16.7967    4.0404 C.ar      1 UNK         0.0000
   1728 C(5)       16.6951   16.7730    2.8367 C.ar      1 UNK         0.0000
   1729 C(6)       17.7729   15.9130    2.6817 C.ar      1 UNK         0.0000
   1730 C(7)       20.0772   13.6238    4.3540 C.2       1 UNK         0.0000
   1731 C(8)       21.2007   12.8223    3.7530 C.3       1 UNK         0.0000
   1732 H(1)       17.7182   14.4050    5.7226 H         1 UNK         0.0000
   1733 H(2)       15.8153   15.9238    6.0041 H         1 UNK         0.0000
   1734 H(3)       16.4021   17.4288    2.0261 H         1 UNK         0.0000
   1735 H(4)       18.3198   15.8966    1.7471 H         1 UNK         0.0000
   1736 H(5)       14.6227   18.0008    3.4139 H         1 UNK         0.0000
   1737 H(6)       19.5284   14.1310    2.4950 H         1 UNK         0.0000
   1738 H(7)       20.9822   11.7918    3.8623 H         1 UNK         0.0000
   1739 H(8)       21.3524   13.0295    2.7256 H         1 UNK         0.0000
   1740 H(9)       22.0812   12.9867    4.3178 H         1 UNK         0.0000
   1741 O(1)       14.4743   13.0597    5.4598 O.3       1 UNK         0.0000
   1742 O(2)        9.5004    9.1152    4.1331 O.2       1 UNK         0.0000
   1743 N(1)       10.1515    9.6395    6.2448 N.am      1 UNK         0.0000
   1744 C(1)       11.2588   10.4794    5.9907 C.ar      1 UNK         0.0000
   1745 C(2)       11.9816   10.4813    4.7979 C.ar      1 UNK         0.0000
   1746 C(3)       13.0593   11.3480    4.6412 C.ar      1 UNK         0.0000
   1747 C(4)       13.4296   12.2102    5.6701 C.ar      1 UNK         0.0000
   1748 C(5)       12.7263   12.1865    6.8738 C.ar      1 UNK         0.0000
   1749 C(6)       11.6484   11.3265    7.0288 C.ar      1 UNK         0.0000
   1750 C(7)        9.3441    9.0373    5.3565 C.2       1 UNK         0.0000
   1751 C(8)        8.2207    8.2358    5.9575 C.3       1 UNK         0.0000
   1752 H(1)       11.7032    9.8185    3.9879 H         1 UNK         0.0000
   1753 H(2)       13.6061   11.3373    3.7064 H         1 UNK         0.0000
   1754 H(3)       13.0192   12.8423    7.6844 H         1 UNK         0.0000
   1755 H(4)       11.1015   11.3101    7.9634 H         1 UNK         0.0000
   1756 H(5)       14.7987   13.4143    6.2966 H         1 UNK         0.0000
   1757 H(6)        9.8930    9.5445    7.2155 H         1 UNK         0.0000
   1758 H(7)        8.4391    7.2053    5.8482 H         1 UNK         0.0000
   1759 H(8)        8.0689    8.4430    6.9849 H         1 UNK         0.0000
   1760 H(9)        7.3401    8.4002    5.3927 H         1 UNK         0.0000
   1761 O(1)       21.7204    9.8728   15.9746 O.3       1 UNK         0.0000
   1762 O(2)       16.7465   13.8173   14.6478 O.2       1 UNK         0.0000
   1763 N(1)       17.3975   13.2930   16.7595 N.am      1 UNK         0.0000
   1764 C(1)       18.5048   12.4531   16.5055 C.ar      1 UNK         0.0000
   1765 C(2)       19.2277   12.4512   15.3126 C.ar      1 UNK         0.0000
   1766 C(3)       20.3053   11.5845   15.1560 C.ar      1 UNK         0.0000
   1767 C(4)       20.6756   10.7223   16.1849 C.ar      1 UNK         0.0000
   1768 C(5)       19.9723   10.7460   17.3886 C.ar      1 UNK         0.0000
   1769 C(6)       18.8945   11.6060   17.5435 C.ar      1 UNK         0.0000
   1770 C(7)       16.5902   13.8952   15.8713 C.2       1 UNK         0.0000
   1771 C(8)       15.4667   14.6967   16.4723 C.3       1 UNK         0.0000
   1772 H(1)       18.9492   13.1140   14.5027 H         1 UNK         0.0000
   1773 H(2)       20.8521   11.5952   14.2212 H         1 UNK         0.0000
   1774 H(3)       20.2653   10.0902   18.1992 H         1 UNK         0.0000
   1775 H(4)       18.3476   11.6224   18.4782 H         1 UNK         0.0000
   1776 H(5)       22.0447    9.5182   16.8114 H         1 UNK         0.0000
   1777 H(6)       17.1390   13.3880   17.7302 H         1 UNK         0.0000
   1778 H(7)       15.6852   15.7272   16.3629 H         1 UNK         0.0000
   1779 H(8)       15.3149   14.4895   17.4996 H         1 UNK         0.0000
   1780 H(9)       14.5862   14.5323   15.9074 H         1 UNK         0.0000
   1781 O(1)       23.1658    5.2863   21.7753 O.3       1 UNK         0.0000
   1782 O(2)       28.1396    9.2308   23.1020 O.2       1 UNK         0.0000
   1783 N(1)       27.4886    8.7065   20.9903 N.am      1 UNK         0.0000
   1784 C(1)       26.3813    7.8666   21.2444 C.ar      1 UNK         0.0000
   1785 C(2)       25.6585    7.8647   22.4372 C.ar      1 UNK         0.0000
   1786 C(3)       24.5808    6.9980   22.5939 C.ar      1 UNK         0.0000
   1787 C(4)       24.2105    6.1358   21.5650 C.ar      1 UNK         0.0000
   1788 C(5)       24.9138    6.1595   20.3613 C.ar      1 UNK         0.0000
   1789 C(6)       25.9916    7.0195   20.2063 C.ar      1 UNK         0.0000
   1790 C(7)       28.2960    9.3087   21.8786 C.2       1 UNK         0.0000
   1791 C(8)       29.4194   10.1102   21.2776 C.3       1 UNK         0.0000
   1792 H(1)       25.9369    8.5275   23.2472 H         1 UNK         0.0000
   1793 H(2)       24.0340    7.0087   23.5287 H         1 UNK         0.0000
   1794 H(3)       24.6209    5.5037   19.5507 H         1 UNK         0.0000
   1795 H(4)       26.5386    7.0359   19.2717 H         1 UNK         0.0000
   1796 H(5)       22.8414    4.9317   20.9385 H         1 UNK         0.0000
   1797 H(6)       27.7471    8.8015   20.0196 H         1 UNK         0.0000
   1798 H(7)       29.2010   11.1407   21.3869 H         1 UNK         0.0000
   1799 H(8)       29.5712    9.9030   20.2502 H         1 UNK         0.0000
   1800 H(9)       30.2999    9.9458   21.8424 H         1 UNK         0.0000
   1801 O(1)       15.9197   17.6462   11.2605 O.3       1 UNK         0.0000
   1802 O(2)       20.8936   13.7017   12.5873 O.2       1 UNK         0.0000
   1803 N(1)       20.2426   14.2260   10.4756 N.am      1 UNK         0.0000
   1804 C(1)       19.1352   15.0659   10.7296 C.ar      1 UNK         0.0000
   1805 C(2)       18.4124   15.0678   11.9225 C.ar      1 UNK         0.0000
   1806 C(3)       17.3347   15.9345   12.0791 C.ar      1 UNK         0.0000
   1807 C(4)       16.9644   16.7967   11.0502 C.ar      1 UNK         0.0000
   1808 C(5)       17.6678   16.7730    9.8465 C.ar      1 UNK         0.0000
   1809 C(6)       18.7456   15.9130    9.6916 C.ar      1 UNK         0.0000
   1810 C(7)       21.0499   13.6238   11.3638 C.2       1 UNK         0.0000
   1811 C(8)       22.1734   12.8223   10.7628 C.3       1 UNK         0.0000
   1812 H(1)       18.6909   14.4050   12.7324 H         1 UNK         0.0000
   1813 H(2)       16.7880   15.9238   13.0139 H         1 UNK         0.0000
   1814 H(3)       17.3748   17.4288    9.0359 H         1 UNK         0.0000
   1815 H(4)       19.2925   15.8966    8.7569 H         1 UNK         0.0000
   1816 H(5)       15.5954   18.0008   10.4237 H         1 UNK         0.0000
   1817 H(6)       20.5011   14.1310    9.5049 H         1 UNK         0.0000
   1818 H(7)       21.9549   11.7918   10.8722 H         1 UNK         0.0000
   1819 H(8)       22.3251   13.0295    9.7355 H         1 UNK         0.0000
   1820 H(9)       23.0539   12.9867   11.3277 H         1 UNK         0.0000
   1821 O(1)       27.0210   13.0597   12.4697 O.3       1 UNK         0.0000
   1822 O(2)       22.0471    9.1152   11.1429 O.2       1 UNK         0.0000
   1823 N(1)       22.6982    9.6395   13.2546 N.am      1 UNK         0.0000
   1824 C(1)       23.8055   10.4794   13.0005 C.ar      1 UNK         0.0000
   1825 C(2)       24.5283   10.4813   11.8077 C.ar      1 UNK         0.0000
   1826 C(3)       25.6060   11.3480   11.6511 C.ar      1 UNK         0.0000
   1827 C(4)       25.9763   12.2102   12.6800 C.ar      1 UNK         0.0000
   1828 C(5)       25.2729   12.1865   13.8837 C.ar      1 UNK         0.0000
   1829 C(6)       24.1951   11.3265   14.0386 C.ar      1 UNK         0.0000
   1830 C(7)       21.8908    9.0373   12.3664 C.2       1 UNK         0.0000
   1831 C(8)       20.7674    8.2358   12.9673 C.3       1 UNK         0.0000
   1832 H(1)       24.2499    9.8185   10.9978 H         1 UNK         0.0000
   1833 H(2)       26.1528   11.3373   10.7162 H         1 UNK         0.0000
   1834 H(3)       25.5659   12.8423   14.6943 H         1 UNK         0.0000
   1835 H(4)       23.6482   11.3101   14.9733 H         1 UNK         0.0000
   1836 H(5)       27.3454   13.4143   13.3065 H         1 UNK         0.0000
   1837 H(6)       22.4397    9.5445   14.2253 H         1 UNK         0.0000
   1838 H(7)       20.9858    7.2053   12.8580 H         1 UNK         0.0000
   1839 H(8)       20.6156    8.4430   13.9947 H         1 UNK         0.0000
   1840 H(9)       19.8868    8.4002   12.4025 H         1 UNK         0.0000
   1841 O(1)       22.6931    9.8728    1.7534 O.3       1 UNK         0.0000
   1842 O(2)       17.7192   13.8173    0.4267 O.2       1 UNK         0.0000
   1843 N(1)       18.3702   13.2930    2.5384 N.am      1 UNK         0.0000
   1844 C(1)       19.4775   12.4531    2.2843 C.ar      1 UNK         0.0000
   1845 C(2)       20.2004   12.4512    1.0915 C.ar      1 UNK         0.0000
   1846 C(3)       21.2780   11.5845    0.9348 C.ar      1 UNK         0.0000
   1847 C(4)       21.6483   10.7223    1.9637 C.ar      1 UNK         0.0000
   1848 C(5)       20.9450   10.7460    3.1674 C.ar      1 UNK         0.0000
   1849 C(6)       19.8672   11.6060    3.3223 C.ar      1 UNK         0.0000
   1850 C(7)       17.5629   13.8952    1.6501 C.2       1 UNK         0.0000
   1851 C(8)       16.4394   14.6967    2.2511 C.3       1 UNK         0.0000
   1852 H(1)       19.9219   13.1140    0.2815 H         1 UNK         0.0000
   1853 H(2)       21.8248   11.5952    0.0000 H         1 UNK         0.0000
   1854 H(3)       21.2379   10.0902    3.9780 H         1 UNK         0.0000
   1855 H(4)       19.3203   11.6224    4.2570 H         1 UNK         0.0000
   1856 H(5)       23.0174    9.5182    2.5902 H         1 UNK         0.0000
   1857 H(6)       18.1117   13.3880    3.5091 H         1 UNK         0.0000
   1858 H(7)       16.6579   15.7272    2.1418 H         1 UNK         0.0000
   1859 H(8)       16.2876   14.4895    3.2785 H         1 UNK         0.0000
   1860 H(9)       15.5589   14.5323    1.6863 H         1 UNK         0.0000
   1861 O(1)        9.6464    5.2863    7.7556 O.3       1 UNK         0.0000
   1862 O(2)       14.6203    9.2308    9.0824 O.2       1 UNK         0.0000
   1863 N(1)       13.9692    8.7065    6.9707 N.am      1 UNK         0.0000
   1864 C(1)       12.8619    7.8666    7.2247 C.ar      1 UNK         0.0000
   1865 C(2)       12.1391    7.8647    8.4175 C.ar      1 UNK         0.0000
   1866 C(3)       11.0614    6.9980    8.5742 C.ar      1 UNK         0.0000
   1867 C(4)       10.6911    6.1358    7.5453 C.ar      1 UNK         0.0000
   1868 C(5)       11.3944    6.1595    6.3416 C.ar      1 UNK         0.0000
   1869 C(6)       12.4723    7.0195    6.1867 C.ar      1 UNK         0.0000
   1870 C(7)       14.7766    9.3087    7.8589 C.2       1 UNK         0.0000
   1871 C(8)       15.9000   10.1102    7.2579 C.3       1 UNK         0.0000
   1872 H(1)       12.4175    8.5275    9.2275 H         1 UNK         0.0000
   1873 H(2)       10.5146    7.0087    9.5090 H         1 UNK         0.0000
   1874 H(3)       11.1015    5.5037    5.5310 H         1 UNK         0.0000
   1875 H(4)       13.0192    7.0359    5.2520 H         1 UNK         0.0000
   1876 H(5)        9.3220    4.9317    6.9188 H         1 UNK         0.0000
   1877 H(6)       14.2277    8.8015    5.9999 H         1 UNK         0.0000
   1878 H(7)       15.6816   11.1407    7.3672 H         1 UNK         0.0000
   1879 H(8)       16.0518    9.9030    6.2305 H         1 UNK         0.0000
   1880 H(9)       16.7806    9.9458    7.8227 H         1 UNK         0.0000
   1881 O(1)       16.8924    8.4732   18.2703 O.3       1 UNK         0.0000
   1882 O(2)       21.8663    4.5287   19.5971 O.2       1 UNK         0.0000
   1883 N(1)       21.2153    5.0530   17.4854 N.am      1 UNK         0.0000
   1884 C(1)       20.1079    5.8929   17.7395 C.ar      1 UNK         0.0000
   1885 C(2)       19.3851    5.8948   18.9323 C.ar      1 UNK         0.0000
   1886 C(3)       18.3074    6.7615   19.0889 C.ar      1 UNK         0.0000
   1887 C(4)       17.9371    7.6237   18.0600 C.ar      1 UNK         0.0000
   1888 C(5)       18.6405    7.6000   16.8563 C.ar      1 UNK         0.0000
   1889 C(6)       19.7183    6.7400   16.7014 C.ar      1 UNK         0.0000
   1890 C(7)       22.0226    4.4508   18.3737 C.2       1 UNK         0.0000
   1891 C(8)       23.1461    3.6493   17.7727 C.3       1 UNK         0.0000
   1892 H(1)       19.6636    5.2320   19.7422 H         1 UNK         0.0000
   1893 H(2)       17.7607    6.7508   20.0238 H         1 UNK         0.0000
   1894 H(3)       18.3475    8.2558   16.0457 H         1 UNK         0.0000
   1895 H(4)       20.2652    6.7236   15.7668 H         1 UNK         0.0000
   1896 H(5)       16.5681    8.8278   17.4335 H         1 UNK         0.0000
   1897 H(6)       21.4738    4.9580   16.5147 H         1 UNK         0.0000
   1898 H(7)       22.9276    2.6188   17.8820 H         1 UNK         0.0000
   1899 H(8)       23.2978    3.8565   16.7453 H         1 UNK         0.0000
   1900 H(9)       24.0266    3.8137   18.3375 H         1 UNK         0.0000
   1901 O(1)       16.4197   13.0597   19.4795 O.3       1 UNK         0.0000
   1902 O(2)       11.4458    9.1152   18.1527 O.2       1 UNK         0.0000
   1903 N(1)       12.0969    9.6395   20.2644 N.am      1 UNK         0.0000
   1904 C(1)       13.2042   10.4794   20.0104 C.ar      1 UNK         0.0000
   1905 C(2)       13.9270   10.4813   18.8176 C.ar      1 UNK         0.0000
   1906 C(3)       15.0047   11.3480   18.6609 C.ar      1 UNK         0.0000
   1907 C(4)       15.3750   12.2102   19.6898 C.ar      1 UNK         0.0000
   1908 C(5)       14.6716   12.1865   20.8935 C.ar      1 UNK         0.0000
   1909 C(6)       13.5938   11.3265   21.0484 C.ar      1 UNK         0.0000
   1910 C(7)       11.2895    9.0373   19.3762 C.2       1 UNK         0.0000
   1911 C(8)       10.1661    8.2358   19.9772 C.3       1 UNK         0.0000
   1912 H(1)       13.6486    9.8185   18.0076 H         1 UNK         0.0000
   1913 H(2)       15.5514   11.3373   17.7261 H         1 UNK         0.0000
   1914 H(3)       14.9646   12.8423   21.7041 H         1 UNK         0.0000
   1915 H(4)       13.0469   11.3101   21.9831 H         1 UNK         0.0000
   1916 H(5)       16.7441   13.4143   20.3163 H         1 UNK         0.0000
   1917 H(6)       11.8384    9.5445   21.2352 H         1 UNK         0.0000
   1918 H(7)       10.3845    7.2053   19.8678 H         1 UNK         0.0000
   1919 H(8)       10.0143    8.4430   21.0046 H         1 UNK         0.0000
   1920 H(9)        9.2855    8.4002   19.4124 H         1 UNK         0.0000
   1921 O(1)       20.7477   19.0458    8.9648 O.3       1 UNK         0.0000
   1922 O(2)       15.7738   22.9903    7.6380 O.2       1 UNK         0.0000
   1923 N(1)       16.4248   22.4660    9.7497 N.am      1 UNK         0.0000
   1924 C(1)       17.5321   21.6261    9.4956 C.ar      1 UNK         0.0000
   1925 C(2)       18.2550   21.6242    8.3028 C.ar      1 UNK         0.0000
   1926 C(3)       19.3326   20.7575    8.1462 C.ar      1 UNK         0.0000
   1927 C(4)       19.7030   19.8953    9.1751 C.ar      1 UNK         0.0000
   1928 C(5)       18.9996   19.9190   10.3788 C.ar      1 UNK         0.0000
   1929 C(6)       17.9218   20.7790   10.5337 C.ar      1 UNK         0.0000
   1930 C(7)       15.6175   23.0682    8.8614 C.2       1 UNK         0.0000
   1931 C(8)       14.4940   23.8697    9.4624 C.3       1 UNK         0.0000
   1932 H(1)       17.9765   22.2870    7.4929 H         1 UNK         0.0000
   1933 H(2)       19.8794   20.7682    7.2113 H         1 UNK         0.0000
   1934 H(3)       19.2926   19.2632   11.1894 H         1 UNK         0.0000
   1935 H(4)       17.3749   20.7954   11.4683 H         1 UNK         0.0000
   1936 H(5)       21.0720   18.6912    9.8016 H         1 UNK         0.0000
   1937 H(6)       16.1663   22.5611   10.7204 H         1 UNK         0.0000
   1938 H(7)       14.7125   24.9002    9.3531 H         1 UNK         0.0000
   1939 H(8)       14.3423   23.6625   10.4898 H         1 UNK         0.0000
   1940 H(9)       13.6135   23.7053    8.8976 H         1 UNK         0.0000
   1941 O(1)       10.6191   14.4593   14.7654 O.3       1 UNK         0.0000
   1942 O(2)       15.5930   18.4038   16.0922 O.2       1 UNK         0.0000
   1943 N(1)       14.9419   17.8795   13.9805 N.am      1 UNK         0.0000
   1944 C(1)       13.8346   17.0396   14.2346 C.ar      1 UNK         0.0000
   1945 C(2)       13.1118   17.0377   15.4274 C.ar      1 UNK         0.0000
   1946 C(3)       12.0341   16.1710   15.5840 C.ar      1 UNK         0.0000
   1947 C(4)       11.6638   15.3088   14.5551 C.ar      1 UNK         0.0000
   1948 C(5)       12.3671   15.3325   13.3514 C.ar      1 UNK         0.0000
   1949 C(6)       13.4450   16.1925   13.1965 C.ar      1 UNK         0.0000
   1950 C(7)       15.7493   18.4817   14.8687 C.2       1 UNK         0.0000
   1951 C(8)       16.8727   19.2832   14.2678 C.3       1 UNK         0.0000
   1952 H(1)       13.3902   17.7005   16.2373 H         1 UNK         0.0000
   1953 H(2)       11.4873   16.1817   16.5188 H         1 UNK         0.0000
   1954 H(3)       12.0742   14.6767   12.5408 H         1 UNK         0.0000
   1955 H(4)       13.9919   16.2089   12.2618 H         1 UNK         0.0000
   1956 H(5)       10.2947   14.1047   13.9286 H         1 UNK         0.0000
   1957 H(6)       15.2004   17.9746   13.0098 H         1 UNK         0.0000
   1958 H(7)       16.6543   20.3137   14.3771 H         1 UNK         0.0000
   1959 H(8)       17.0245   19.0760   13.2404 H         1 UNK         0.0000
   1960 H(9)       17.7532   19.1188   14.8326 H         1 UNK         0.0000
   1961 O(1)       14.9470   26.8192    4.2507 O.3       1 UNK         0.0000
   1962 O(2)       19.9209   22.8747    5.5774 O.2       1 UNK         0.0000
   1963 N(1)       19.2699   23.3990    3.4657 N.am      1 UNK         0.0000
   1964 C(1)       18.1625   24.2389    3.7198 C.ar      1 UNK         0.0000
   1965 C(2)       17.4397   24.2408    4.9126 C.ar      1 UNK         0.0000
   1966 C(3)       16.3620   25.1075    5.0693 C.ar      1 UNK         0.0000
   1967 C(4)       15.9917   25.9697    4.0404 C.ar      1 UNK         0.0000
   1968 C(5)       16.6951   25.9460    2.8367 C.ar      1 UNK         0.0000
   1969 C(6)       17.7729   25.0860    2.6817 C.ar      1 UNK         0.0000
   1970 C(7)       20.0772   22.7968    4.3540 C.2       1 UNK         0.0000
   1971 C(8)       21.2007   21.9953    3.7530 C.3       1 UNK         0.0000
   1972 H(1)       17.7182   23.5780    5.7226 H         1 UNK         0.0000
   1973 H(2)       15.8153   25.0968    6.0041 H         1 UNK         0.0000
   1974 H(3)       16.4021   26.6018    2.0261 H         1 UNK         0.0000
   1975 H(4)       18.3198   25.0696    1.7471 H         1 UNK         0.0000
   1976 H(5)       14.6227   27.1738    3.4139 H         1 UNK         0.0000
   1977 H(6)       19.5284   23.3040    2.4950 H         1 UNK         0.0000
   1978 H(7)       20.9822   20.9648    3.8623 H         1 UNK         0.0000
   1979 H(8)       21.3524   22.2025    2.7256 H         1 UNK         0.0000
   1980 H(9)       22.0812   22.1597    4.3178 H         1 UNK         0.0000
   1981 O(1)       14.4743   22.2327    5.4598 O.3       1 UNK         0.0000
   1982 O(2)        9.5004   18.2882    4.1331 O.2       1 UNK         0.0000
   1983 N(1)       10.1515   18.8125    6.2448 N.am      1 UNK         0.0000
   1984 C(1)       11.2588   19.6524    5.9907 C.ar      1 UNK         0.0000
   1985 C(2)       11.9816   19.6543    4.7979 C.ar      1 UNK         0.0000
   1986 C(3)       13.0593   20.5210    4.6412 C.ar      1 UNK         0.0000
   1987 C(4)       13.4296   21.3832    5.6701 C.ar      1 UNK         0.0000
   1988 C(5)       12.7263   21.3595    6.8738 C.ar      1 UNK         0.0000
   1989 C(6)       11.6484   20.4995    7.0288 C.ar      1 UNK         0.0000
   1990 C(7)        9.3441   18.2103    5.3565 C.2       1 UNK         0.0000
   1991 C(8)        8.2207   17.4088    5.9575 C.3       1 UNK         0.0000
   1992 H(1)       11.7032   18.9915    3.9879 H         1 UNK         0.0000
   1993 H(2)       13.6061   20.5103    3.7064 H         1 UNK         0.0000
   1994 H(3)       13.0192   22.0153    7.6844 H         1 UNK         0.0000
   1995 H(4)       11.1015   20.4831    7.9634 H         1 UNK         0.0000
   1996 H(5)       14.7987   22.5873    6.2966 H         1 UNK         0.0000
   1997 H(6)        9.8930   18.7175    7.2155 H         1 UNK         0.0000
   1998 H(7)        8.4391   16.3783    5.8482 H         1 UNK         0.0000
   1999 H(8)        8.0689   17.6160    6.9849 H         1 UNK         0.0000
   2000 H(9)        7.3401   17.5732    5.3927 H         1 UNK         0.0000
   2001 O(1)       21.7204   19.0458   15.9746 O.3       1 UNK         0.0000
   2002 O(2)       16.7465   22.9903   14.6478 O.2       1 UNK         0.0000
   2003 N(1)       17.3975   22.4660   16.7595 N.am      1 UNK         0.0000
   2004 C(1)       18.5048   21.6261   16.5055 C.ar      1 UNK         0.0000
   2005 C(2)       19.2277   21.6242   15.3126 C.ar      1 UNK         0.0000
   2006 C(3)       20.3053   20.7575   15.1560 C.ar      1 UNK         0.0000
   2007 C(4)       20.6756   19.8953   16.1849 C.ar      1 UNK         0.0000
   2008 C(5)       19.9723   19.9190   17.3886 C.ar      1 UNK         0.0000
   2009 C(6)       18.8945   20.7790   17.5435 C.ar      1 UNK         0.0000
   2010 C(7)       16.5902   23.0682   15.8713 C.2       1 UNK         0.0000
   2011 C(8)       15.4667   23.8697   16.4723 C.3       1 UNK         0.0000
   2012 H(1)       18.9492   22.2870   14.5027 H         1 UNK         0.0000
   2013 H(2)       20.8521   20.7682   14.2212 H         1 UNK         0.0000
   2014 H(3)       20.2653   19.2632   18.1992 H         1 UNK         0.0000
   2015 H(4)       18.3476   20.7954   18.4782 H         1 UNK         0.0000
   2016 H(5)       22.0447   18.6912   16.8114 H         1 UNK         0.0000
   2017 H(6)       17.1390   22.5611   17.7302 H         1 UNK         0.0000
   2018 H(7)       15.6852   24.9002   16.3629 H         1 UNK         0.0000
   2019 H(8)       15.3149   23.6625   17.4996 H         1 UNK         0.0000
   2020 H(9)       14.5862   23.7053   15.9074 H         1 UNK         0.0000
   2021 O(1)       23.1658   14.4593   21.7753 O.3       1 UNK         0.0000
   2022 O(2)       28.1396   18.4038   23.1020 O.2       1 UNK         0.0000
   2023 N(1)       27.4886   17.8795   20.9903 N.am      1 UNK         0.0000
   2024 C(1)       26.3813   17.0396   21.2444 C.ar      1 UNK         0.0000
   2025 C(2)       25.6585   17.0377   22.4372 C.ar      1 UNK         0.0000
   2026 C(3)       24.5808   16.1710   22.5939 C.ar      1 UNK         0.0000
   2027 C(4)       24.2105   15.3088   21.5650 C.ar      1 UNK         0.0000
   2028 C(5)       24.9138   15.3325   20.3613 C.ar      1 UNK         0.0000
   2029 C(6)       25.9916   16.1925   20.2063 C.ar      1 UNK         0.0000
   2030 C(7)       28.2960   18.4817   21.8786 C.2       1 UNK         0.0000
   2031 C(8)       29.4194   19.2832   21.2776 C.3       1 UNK         0.0000
   2032 H(1)       25.9369   17.7005   23.2472 H         1 UNK         0.0000
   2033 H(2)       24.0340   16.1817   23.5287 H         1 UNK         0.0000
   2034 H(3)       24.6209   14.6767   19.5507 H         1 UNK         0.0000
   2035 H(4)       26.5386   16.2089   19.2717 H         1 UNK         0.0000
   2036 H(5)       22.8414   14.1047   20.9385 H         1 UNK         0.0000
   2037 H(6)       27.7471   17.9746   20.0196 H         1 UNK         0.0000
   2038 H(7)       29.2010   20.3137   21.3869 H         1 UNK         0.0000
   2039 H(8)       29.5712   19.0760   20.2502 H         1 UNK         0.0000
   2040 H(9)       30.2999   19.1188   21.8424 H         1 UNK         0.0000
   2041 O(1)       15.9197   26.8192   11.2605 O.3       1 UNK         0.0000
   2042 O(2)       20.8936   22.8747   12.5873 O.2       1 UNK         0.0000
   2043 N(1)       20.2426   23.3990   10.4756 N.am      1 UNK         0.0000
   2044 C(1)       19.1352   24.2389   10.7296 C.ar      1 UNK         0.0000
   2045 C(2)       18.4124   24.2408   11.9225 C.ar      1 UNK         0.0000
   2046 C(3)       17.3347   25.1075   12.0791 C.ar      1 UNK         0.0000
   2047 C(4)       16.9644   25.9697   11.0502 C.ar      1 UNK         0.0000
   2048 C(5)       17.6678   25.9460    9.8465 C.ar      1 UNK         0.0000
   2049 C(6)       18.7456   25.0860    9.6916 C.ar      1 UNK         0.0000
   2050 C(7)       21.0499   22.7968   11.3638 C.2       1 UNK         0.0000
   2051 C(8)       22.1734   21.9953   10.7628 C.3       1 UNK         0.0000
   2052 H(1)       18.6909   23.5780   12.7324 H         1 UNK         0.0000
   2053 H(2)       16.7880   25.0968   13.0139 H         1 UNK         0.0000
   2054 H(3)       17.3748   26.6018    9.0359 H         1 UNK         0.0000
   2055 H(4)       19.2925   25.0696    8.7569 H         1 UNK         0.0000
   2056 H(5)       15.5954   27.1738   10.4237 H         1 UNK         0.0000
   2057 H(6)       20.5011   23.3040    9.5049 H         1 UNK         0.0000
   2058 H(7)       21.9549   20.9648   10.8722 H         1 UNK         0.0000
   2059 H(8)       22.3251   22.2025    9.7355 H         1 UNK         0.0000
   2060 H(9)       23.0539   22.1597   11.3277 H         1 UNK         0.0000
   2061 O(1)       27.0210   22.2327   12.4697 O.3       1 UNK         0.0000
   2062 O(2)       22.0471   18.2882   11.1429 O.2       1 UNK         0.0000
   2063 N(1)       22.6982   18.8125   13.2546 N.am      1 UNK         0.0000
   2064 C(1)       23.8055   19.6524   13.0005 C.ar      1 UNK         0.0000
   2065 C(2)       24.5283   19.6543   11.8077 C.ar      1 UNK         0.0000
   2066 C(3)       25.6060   20.5210   11.6511 C.ar      1 UNK         0.0000
   2067 C(4)       25.9763   21.3832   12.6800 C.ar      1 UNK         0.0000
   2068 C(5)       25.2729   21.3595   13.8837 C.ar      1 UNK         0.0000
   2069 C(6)       24.1951   20.4995   14.0386 C.ar      1 UNK         0.0000
   2070 C(7)       21.8908   18.2103   12.3664 C.2       1 UNK         0.0000
   2071 C(8)       20.7674   17.4088   12.9673 C.3       1 UNK         0.0000
   2072 H(1)       24.2499   18.9915   10.9978 H         1 UNK         0.0000
   2073 H(2)       26.1528   20.5103   10.7162 H         1 UNK         0.0000
   2074 H(3)       25.5659   22.0153   14.6943 H         1 UNK         0.0000
   2075 H(4)       23.6482   20.4831   14.9733 H         1 UNK         0.0000
   2076 H(5)       27.3454   22.5873   13.3065 H         1 UNK         0.0000
   2077 H(6)       22.4397   18.7175   14.2253 H         1 UNK         0.0000
   2078 H(7)       20.9858   16.3783   12.8580 H         1 UNK         0.0000
   2079 H(8)       20.6156   17.6160   13.9947 H         1 UNK         0.0000
   2080 H(9)       19.8868   17.5732   12.4025 H         1 UNK         0.0000
   2081 O(1)       22.6931   19.0458    1.7534 O.3       1 UNK         0.0000
   2082 O(2)       17.7192   22.9903    0.4267 O.2       1 UNK         0.0000
   2083 N(1)       18.3702   22.4660    2.5384 N.am      1 UNK         0.0000
   2084 C(1)       19.4775   21.6261    2.2843 C.ar      1 UNK         0.0000
   2085 C(2)       20.2004   21.6242    1.0915 C.ar      1 UNK         0.0000
   2086 C(3)       21.2780   20.7575    0.9348 C.ar      1 UNK         0.0000
   2087 C(4)       21.6483   19.8953    1.9637 C.ar      1 UNK         0.0000
   2088 C(5)       20.9450   19.9190    3.1674 C.ar      1 UNK         0.0000
   2089 C(6)       19.8672   20.7790    3.3223 C.ar      1 UNK         0.0000
   2090 C(7)       17.5629   23.0682    1.6501 C.2       1 UNK         0.0000
   2091 C(8)       16.4394   23.8697    2.2511 C.3       1 UNK         0.0000
   2092 H(1)       19.9219   22.2870    0.2815 H         1 UNK         0.0000
   2093 H(2)       21.8248   20.7682    0.0000 H         1 UNK         0.0000
   2094 H(3)       21.2379   19.2632    3.9780 H         1 UNK         0.0000
   2095 H(4)       19.3203   20.7954    4.2570 H         1 UNK         0.0000
   2096 H(5)       23.0174   18.6912    2.5902 H         1 UNK         0.0000
   2097 H(6)       18.1117   22.5611    3.5091 H         1 UNK         0.0000
   2098 H(7)       16.6579   24.9002    2.1418 H         1 UNK         0.0000
   2099 H(8)       16.2876   23.6625    3.2785 H         1 UNK         0.0000
   2100 H(9)       15.5589   23.7053    1.6863 H         1 UNK         0.0000
   2101 O(1)        9.6464   14.4593    7.7556 O.3       1 UNK         0.0000
   2102 O(2)       14.6203   18.4038    9.0824 O.2       1 UNK         0.0000
   2103 N(1)       13.9692   17.8795    6.9707 N.am      1 UNK         0.0000
   2104 C(1)       12.8619   17.0396    7.2247 C.ar      1 UNK         0.0000
   2105 C(2)       12.1391   17.0377    8.4175 C.ar      1 UNK         0.0000
   2106 C(3)       11.0614   16.1710    8.5742 C.ar      1 UNK         0.0000
   2107 C(4)       10.6911   15.3088    7.5453 C.ar      1 UNK         0.0000
   2108 C(5)       11.3944   15.3325    6.3416 C.ar      1 UNK         0.0000
   2109 C(6)       12.4723   16.1925    6.1867 C.ar      1 UNK         0.0000
   2110 C(7)       14.7766   18.4817    7.8589 C.2       1 UNK         0.0000
   2111 C(8)       15.9000   19.2832    7.2579 C.3       1 UNK         0.0000
   2112 H(1)       12.4175   17.7005    9.2275 H         1 UNK         0.0000
   2113 H(2)       10.5146   16.1817    9.5090 H         1 UNK         0.0000
   2114 H(3)       11.1015   14.6767    5.5310 H         1 UNK         0.0000
   2115 H(4)       13.0192   16.2089    5.2520 H         1 UNK         0.0000
   2116 H(5)        9.3220   14.1047    6.9188 H         1 UNK         0.0000
   2117 H(6)       14.2277   17.9746    5.9999 H         1 UNK         0.0000
   2118 H(7)       15.6816   20.3137    7.3672 H         1 UNK         0.0000
   2119 H(8)       16.0518   19.0760    6.2305 H         1 UNK         0.0000
   2120 H(9)       16.7806   19.1188    7.8227 H         1 UNK         0.0000
   2121 O(1)       16.8924   17.6462   18.2703 O.3       1 UNK         0.0000
   2122 O(2)       21.8663   13.7017   19.5971 O.2       1 UNK         0.0000
   2123 N(1)       21.2153   14.2260   17.4854 N.am      1 UNK         0.0000
   2124 C(1)       20.1079   15.0659   17.7395 C.ar      1 UNK         0.0000
   2125 C(2)       19.3851   15.0678   18.9323 C.ar      1 UNK         0.0000
   2126 C(3)       18.3074   15.9345   19.0889 C.ar      1 UNK         0.0000
   2127 C(4)       17.9371   16.7967   18.0600 C.ar      1 UNK         0.0000
   2128 C(5)       18.6405   16.7730   16.8563 C.ar      1 UNK         0.0000
   2129 C(6)       19.7183   15.9130   16.7014 C.ar      1 UNK         0.0000
   2130 C(7)       22.0226   13.6238   18.3737 C.2       1 UNK         0.0000
   2131 C(8)       23.1461   12.8223   17.7727 C.3       1 UNK         0.0000
   2132 H(1)       19.6636   14.4050   19.7422 H         1 UNK         0.0000
   2133 H(2)       17.7607   15.9238   20.0238 H         1 UNK         0.0000
   2134 H(3)       18.3475   17.4288   16.0457 H         1 UNK         0.0000
   2135 H(4)       20.2652   15.8966   15.7668 H         1 UNK         0.0000
   2136 H(5)       16.5681   18.0008   17.4335 H         1 UNK         0.0000
   2137 H(6)       21.4738   14.1310   16.5147 H         1 UNK         0.0000
   2138 H(7)       22.9276   11.7918   17.8820 H         1 UNK         0.0000
   2139 H(8)       23.2978   13.0295   16.7453 H         1 UNK         0.0000
   2140 H(9)       24.0266   12.9867   18.3375 H         1 UNK         0.0000
   2141 O(1)       16.4197   22.2327   19.4795 O.3       1 UNK         0.0000
   2142 O(2)       11.4458   18.2882   18.1527 O.2       1 UNK         0.0000
   2143 N(1)       12.0969   18.8125   20.2644 N.am      1 UNK         0.0000
   2144 C(1)       13.2042   19.6524   20.0104 C.ar      1 UNK         0.0000
   2145 C(2)       13.9270   19.6543   18.8176 C.ar      1 UNK         0.0000
   2146 C(3)       15.0047   20.5210   18.6609 C.ar      1 UNK         0.0000
   2147 C(4)       15.3750   21.3832   19.6898 C.ar      1 UNK         0.0000
   2148 C(5)       14.6716   21.3595   20.8935 C.ar      1 UNK         0.0000
   2149 C(6)       13.5938   20.4995   21.0484 C.ar      1 UNK         0.0000
   2150 C(7)       11.2895   18.2103   19.3762 C.2       1 UNK         0.0000
   2151 C(8)       10.1661   17.4088   19.9772 C.3       1 UNK         0.0000
   2152 H(1)       13.6486   18.9915   18.0076 H         1 UNK         0.0000
   2153 H(2)       15.5514   20.5103   17.7261 H         1 UNK         0.0000
   2154 H(3)       14.9646   22.0153   21.7041 H         1 UNK         0.0000
   2155 H(4)       13.0469   20.4831   21.9831 H         1 UNK         0.0000
   2156 H(5)       16.7441   22.5873   20.3163 H         1 UNK         0.0000
   2157 H(6)       11.8384   18.7175   21.2352 H         1 UNK         0.0000
   2158 H(7)       10.3845   16.3783   19.8678 H         1 UNK         0.0000
   2159 H(8)       10.0143   17.6160   21.0046 H         1 UNK         0.0000
   2160 H(9)        9.2855   17.5732   19.4124 H         1 UNK         0.0000
   2161 O(1)       20.7477   28.2188    8.9648 O.3       1 UNK         0.0000
   2162 O(2)       15.7738   32.1633    7.6380 O.2       1 UNK         0.0000
   2163 N(1)       16.4248   31.6390    9.7497 N.am      1 UNK         0.0000
   2164 C(1)       17.5321   30.7991    9.4956 C.ar      1 UNK         0.0000
   2165 C(2)       18.2550   30.7972    8.3028 C.ar      1 UNK         0.0000
   2166 C(3)       19.3326   29.9305    8.1462 C.ar      1 UNK         0.0000
   2167 C(4)       19.7030   29.0683    9.1751 C.ar      1 UNK         0.0000
   2168 C(5)       18.9996   29.0920   10.3788 C.ar      1 UNK         0.0000
   2169 C(6)       17.9218   29.9520   10.5337 C.ar      1 UNK         0.0000
   2170 C(7)       15.6175   32.2412    8.8614 C.2       1 UNK         0.0000
   2171 C(8)       14.4940   33.0427    9.4624 C.3       1 UNK         0.0000
   2172 H(1)       17.9765   31.4600    7.4929 H         1 UNK         0.0000
   2173 H(2)       19.8794   29.9412    7.2113 H         1 UNK         0.0000
   2174 H(3)       19.2926   28.4362   11.1894 H         1 UNK         0.0000
   2175 H(4)       17.3749   29.9684   11.4683 H         1 UNK         0.0000
   2176 H(5)       21.0720   27.8642    9.8016 H         1 UNK         0.0000
   2177 H(6)       16.1663   31.7340   10.7204 H         1 UNK         0.0000
   2178 H(7)       14.7125   34.0732    9.3531 H         1 UNK         0.0000
   2179 H(8)       14.3423   32.8355   10.4898 H         1 UNK         0.0000
   2180 H(9)       13.6135   32.8783    8.8976 H         1 UNK         0.0000
   2181 O(1)       10.6191   23.6323   14.7654 O.3       1 UNK         0.0000
   2182 O(2)       15.5930   27.5768   16.0922 O.2       1 UNK         0.0000
   2183 N(1)       14.9419   27.0525   13.9805 N.am      1 UNK         0.0000
   2184 C(1)       13.8346   26.2126   14.2346 C.ar      1 UNK         0.0000
   2185 C(2)       13.1118   26.2107   15.4274 C.ar      1 UNK         0.0000
   2186 C(3)       12.0341   25.3440   15.5840 C.ar      1 UNK         0.0000
   2187 C(4)       11.6638   24.4818   14.5551 C.ar      1 UNK         0.0000
   2188 C(5)       12.3671   24.5055   13.3514 C.ar      1 UNK         0.0000
   2189 C(6)       13.4450   25.3655   13.1965 C.ar      1 UNK         0.0000
   2190 C(7)       15.7493   27.6547   14.8687 C.2       1 UNK         0.0000
   2191 C(8)       16.8727   28.4562   14.2678 C.3       1 UNK         0.0000
   2192 H(1)       13.3902   26.8735   16.2373 H         1 UNK         0.0000
   2193 H(2)       11.4873   25.3547   16.5188 H         1 UNK         0.0000
   2194 H(3)       12.0742   23.8497   12.5408 H         1 UNK         0.0000
   2195 H(4)       13.9919   25.3819   12.2618 H         1 UNK         0.0000
   2196 H(5)       10.2947   23.2777   13.9286 H         1 UNK         0.0000
   2197 H(6)       15.2004   27.1475   13.0098 H         1 UNK         0.0000
   2198 H(7)       16.6543   29.4867   14.3771 H         1 UNK         0.0000
   2199 H(8)       17.0245   28.2490   13.2404 H         1 UNK         0.0000
   2200 H(9)       17.7532   28.2918   14.8326 H         1 UNK         0.0000
   2201 O(1)       14.9470   35.9922    4.2507 O.3       1 UNK         0.0000
   2202 O(2)       19.9209   32.0477    5.5774 O.2       1 UNK         0.0000
   2203 N(1)       19.2699   32.5720    3.4657 N.am      1 UNK         0.0000
   2204 C(1)       18.1625   33.4119    3.7198 C.ar      1 UNK         0.0000
   2205 C(2)       17.4397   33.4138    4.9126 C.ar      1 UNK         0.0000
   2206 C(3)       16.3620   34.2805    5.0693 C.ar      1 UNK         0.0000
   2207 C(4)       15.9917   35.1427    4.0404 C.ar      1 UNK         0.0000
   2208 C(5)       16.6951   35.1190    2.8367 C.ar      1 UNK         0.0000
   2209 C(6)       17.7729   34.2590    2.6817 C.ar      1 UNK         0.0000
   2210 C(7)       20.0772   31.9698    4.3540 C.2       1 UNK         0.0000
   2211 C(8)       21.2007   31.1683    3.7530 C.3       1 UNK         0.0000
   2212 H(1)       17.7182   32.7510    5.7226 H         1 UNK         0.0000
   2213 H(2)       15.8153   34.2698    6.0041 H         1 UNK         0.0000
   2214 H(3)       16.4021   35.7748    2.0261 H         1 UNK         0.0000
   2215 H(4)       18.3198   34.2426    1.7471 H         1 UNK         0.0000
   2216 H(5)       14.6227   36.3468    3.4139 H         1 UNK         0.0000
   2217 H(6)       19.5284   32.4770    2.4950 H         1 UNK         0.0000
   2218 H(7)       20.9822   30.1378    3.8623 H         1 UNK         0.0000
   2219 H(8)       21.3524   31.3755    2.7256 H         1 UNK         0.0000
   2220 H(9)       22.0812   31.3327    4.3178 H         1 UNK         0.0000
   2221 O(1)       14.4743   31.4057    5.4598 O.3       1 UNK         0.0000
   2222 O(2)        9.5004   27.4612    4.1331 O.2       1 UNK         0.0000
   2223 N(1)       10.1515   27.9855    6.2448 N.am      1 UNK         0.0000
   2224 C(1)       11.2588   28.8254    5.9907 C.ar      1 UNK         0.0000
   2225 C(2)       11.9816   28.8273    4.7979 C.ar      1 UNK         0.0000
   2226 C(3)       13.0593   29.6940    4.6412 C.ar      1 UNK         0.0000
   2227 C(4)       13.4296   30.5562    5.6701 C.ar      1 UNK         0.0000
   2228 C(5)       12.7263   30.5325    6.8738 C.ar      1 UNK         0.0000
   2229 C(6)       11.6484   29.6725    7.0288 C.ar      1 UNK         0.0000
   2230 C(7)        9.3441   27.3833    5.3565 C.2       1 UNK         0.0000
   2231 C(8)        8.2207   26.5818    5.9575 C.3       1 UNK         0.0000
   2232 H(1)       11.7032   28.1645    3.9879 H         1 UNK         0.0000
   2233 H(2)       13.6061   29.6833    3.7064 H         1 UNK         0.0000
   2234 H(3)       13.0192   31.1883    7.6844 H         1 UNK         0.0000
   2235 H(4)       11.1015   29.6561    7.9634 H         1 UNK         0.0000
   2236 H(5)       14.7987   31.7603    6.2966 H         1 UNK         0.0000
   2237 H(6)        9.8930   27.8905    7.2155 H         1 UNK         0.0000
   2238 H(7)        8.4391   25.5513    5.8482 H         1 UNK         0.0000
   2239 H(8)        8.0689   26.7890    6.9849 H         1 UNK         0.0000
   2240 H(9)        7.3401   26.7462    5.3927 H         1 UNK         0.0000
   2241 O(1)       21.7204   28.2188   15.9746 O.3       1 UNK         0.0000
   2242 O(2)       16.7465   32.1633   14.6478 O.2       1 UNK         0.0000
   2243 N(1)       17.3975   31.6390   16.7595 N.am      1 UNK         0.0000
   2244 C(1)       18.5048   30.7991   16.5055 C.ar      1 UNK         0.0000
   2245 C(2)       19.2277   30.7972   15.3126 C.ar      1 UNK         0.0000
   2246 C(3)       20.3053   29.9305   15.1560 C.ar      1 UNK         0.0000
   2247 C(4)       20.6756   29.0683   16.1849 C.ar      1 UNK         0.0000
   2248 C(5)       19.9723   29.0920   17.3886 C.ar      1 UNK         0.0000
   2249 C(6)       18.8945   29.9520   17.5435 C.ar      1 UNK         0.0000
   2250 C(7)       16.5902   32.2412   15.8713 C.2       1 UNK         0.0000
   2251 C(8)       15.4667   33.0427   16.4723 C.3       1 UNK         0.0000
   2252 H(1)       18.9492   31.4600   14.5027 H         1 UNK         0.0000
   2253 H(2)       20.8521   29.9412   14.2212 H         1 UNK         0.0000
   2254 H(3)       20.2653   28.4362   18.1992 H         1 UNK         0.0000
   2255 H(4)       18.3476   29.9684   18.4782 H         1 UNK         0.0000
   2256 H(5)       22.0447   27.8642   16.8114 H         1 UNK         0.0000
   2257 H(6)       17.1390   31.7340   17.7302 H         1 UNK         0.0000
   2258 H(7)       15.6852   34.0732   16.3629 H         1 UNK         0.0000
   2259 H(8)       15.3149   32.8355   17.4996 H         1 UNK         0.0000
   2260 H(9)       14.5862   32.8783   15.9074 H         1 UNK         0.0000
   2261 O(1)       23.1658   23.6323   21.7753 O.3       1 UNK         0.0000
   2262 O(2)       28.1396   27.5768   23.1020 O.2       1 UNK         0.0000
   2263 N(1)       27.4886   27.0525   20.9903 N.am      1 UNK         0.0000
   2264 C(1)       26.3813   26.2126   21.2444 C.ar      1 UNK         0.0000
   2265 C(2)       25.6585   26.2107   22.4372 C.ar      1 UNK         0.0000
   2266 C(3)       24.5808   25.3440   22.5939 C.ar      1 UNK         0.0000
   2267 C(4)       24.2105   24.4818   21.5650 C.ar      1 UNK         0.0000
   2268 C(5)       24.9138   24.5055   20.3613 C.ar      1 UNK         0.0000
   2269 C(6)       25.9916   25.3655   20.2063 C.ar      1 UNK         0.0000
   2270 C(7)       28.2960   27.6547   21.8786 C.2       1 UNK         0.0000
   2271 C(8)       29.4194   28.4562   21.2776 C.3       1 UNK         0.0000
   2272 H(1)       25.9369   26.8735   23.2472 H         1 UNK         0.0000
   2273 H(2)       24.0340   25.3547   23.5287 H         1 UNK         0.0000
   2274 H(3)       24.6209   23.8497   19.5507 H         1 UNK         0.0000
   2275 H(4)       26.5386   25.3819   19.2717 H         1 UNK         0.0000
   2276 H(5)       22.8414   23.2777   20.9385 H         1 UNK         0.0000
   2277 H(6)       27.7471   27.1475   20.0196 H         1 UNK         0.0000
   2278 H(7)       29.2010   29.4867   21.3869 H         1 UNK         0.0000
   2279 H(8)       29.5712   28.2490   20.2502 H         1 UNK         0.0000
   2280 H(9)       30.2999   28.2918   21.8424 H         1 UNK         0.0000
   2281 O(1)       15.9197   35.9922   11.2605 O.3       1 UNK         0.0000
   2282 O(2)       20.8936   32.0477   12.5873 O.2       1 UNK         0.0000
   2283 N(1)       20.2426   32.5720   10.4756 N.am      1 UNK         0.0000
   2284 C(1)       19.1352   33.4119   10.7296 C.ar      1 UNK         0.0000
   2285 C(2)       18.4124   33.4138   11.9225 C.ar      1 UNK         0.0000
   2286 C(3)       17.3347   34.2805   12.0791 C.ar      1 UNK         0.0000
   2287 C(4)       16.9644   35.1427   11.0502 C.ar      1 UNK         0.0000
   2288 C(5)       17.6678   35.1190    9.8465 C.ar      1 UNK         0.0000
   2289 C(6)       18.7456   34.2590    9.6916 C.ar      1 UNK         0.0000
   2290 C(7)       21.0499   31.9698   11.3638 C.2       1 UNK         0.0000
   2291 C(8)       22.1734   31.1683   10.7628 C.3       1 UNK         0.0000
   2292 H(1)       18.6909   32.7510   12.7324 H         1 UNK         0.0000
   2293 H(2)       16.7880   34.2698   13.0139 H         1 UNK         0.0000
   2294 H(3)       17.3748   35.7748    9.0359 H         1 UNK         0.0000
   2295 H(4)       19.2925   34.2426    8.7569 H         1 UNK         0.0000
   2296 H(5)       15.5954   36.3468   10.4237 H         1 UNK         0.0000
   2297 H(6)       20.5011   32.4770    9.5049 H         1 UNK         0.0000
   2298 H(7)       21.9549   30.1378   10.8722 H         1 UNK         0.0000
   2299 H(8)       22.3251   31.3755    9.7355 H         1 UNK         0.0000
   2300 H(9)       23.0539   31.3327   11.3277 H         1 UNK         0.0000
   2301 O(1)       27.0210   31.4057   12.4697 O.3       1 UNK         0.0000
   2302 O(2)       22.0471   27.4612   11.1429 O.2       1 UNK         0.0000
   2303 N(1)       22.6982   27.9855   13.2546 N.am      1 UNK         0.0000
   2304 C(1)       23.8055   28.8254   13.0005 C.ar      1 UNK         0.0000
   2305 C(2)       24.5283   28.8273   11.8077 C.ar      1 UNK         0.0000
   2306 C(3)       25.6060   29.6940   11.6511 C.ar      1 UNK         0.0000
   2307 C(4)       25.9763   30.5562   12.6800 C.ar      1 UNK         0.0000
   2308 C(5)       25.2729   30.5325   13.8837 C.ar      1 UNK         0.0000
   2309 C(6)       24.1951   29.6725   14.0386 C.ar      1 UNK         0.0000
   2310 C(7)       21.8908   27.3833   12.3664 C.2       1 UNK         0.0000
   2311 C(8)       20.7674   26.5818   12.9673 C.3       1 UNK         0.0000
   2312 H(1)       24.2499   28.1645   10.9978 H         1 UNK         0.0000
   2313 H(2)       26.1528   29.6833   10.7162 H         1 UNK         0.0000
   2314 H(3)       25.5659   31.1883   14.6943 H         1 UNK         0.0000
   2315 H(4)       23.6482   29.6561   14.9733 H         1 UNK         0.0000
   2316 H(5)       27.3454   31.7603   13.3065 H         1 UNK         0.0000
   2317 H(6)       22.4397   27.8905   14.2253 H         1 UNK         0.0000
   2318 H(7)       20.9858   25.5513   12.8580 H         1 UNK         0.0000
   2319 H(8)       20.6156   26.7890   13.9947 H         1 UNK         0.0000
   2320 H(9)       19.8868   26.7462   12.4025 H         1 UNK         0.0000
   2321 O(1)       22.6931   28.2188    1.7534 O.3       1 UNK         0.0000
   2322 O(2)       17.7192   32.1633    0.4267 O.2       1 UNK         0.0000
   2323 N(1)       18.3702   31.6390    2.5384 N.am      1 UNK         0.0000
   2324 C(1)       19.4775   30.7991    2.2843 C.ar      1 UNK         0.0000
   2325 C(2)       20.2004   30.7972    1.0915 C.ar      1 UNK         0.0000
   2326 C(3)       21.2780   29.9305    0.9348 C.ar      1 UNK         0.0000
   2327 C(4)       21.6483   29.0683    1.9637 C.ar      1 UNK         0.0000
   2328 C(5)       20.9450   29.0920    3.1674 C.ar      1 UNK         0.0000
   2329 C(6)       19.8672   29.9520    3.3223 C.ar      1 UNK         0.0000
   2330 C(7)       17.5629   32.2412    1.6501 C.2       1 UNK         0.0000
   2331 C(8)       16.4394   33.0427    2.2511 C.3       1 UNK         0.0000
   2332 H(1)       19.9219   31.4600    0.2815 H         1 UNK         0.0000
   2333 H(2)       21.8248   29.9412    0.0000 H         1 UNK         0.0000
   2334 H(3)       21.2379   28.4362    3.9780 H         1 UNK         0.0000
   2335 H(4)       19.3203   29.9684    4.2570 H         1 UNK         0.0000
   2336 H(5)       23.0174   27.8642    2.5902 H         1 UNK         0.0000
   2337 H(6)       18.1117   31.7340    3.5091 H         1 UNK         0.0000
   2338 H(7)       16.6579   34.0732    2.1418 H         1 UNK         0.0000
   2339 H(8)       16.2876   32.8355    3.2785 H         1 UNK         0.0000
   2340 H(9)       15.5589   32.8783    1.6863 H         1 UNK         0.0000
   2341 O(1)        9.6464   23.6323    7.7556 O.3       1 UNK         0.0000
   2342 O(2)       14.6203   27.5768    9.0824 O.2       1 UNK         0.0000
   2343 N(1)       13.9692   27.0525    6.9707 N.am      1 UNK         0.0000
   2344 C(1)       12.8619   26.2126    7.2247 C.ar      1 UNK         0.0000
   2345 C(2)       12.1391   26.2107    8.4175 C.ar      1 UNK         0.0000
   2346 C(3)       11.0614   25.3440    8.5742 C.ar      1 UNK         0.0000
   2347 C(4)       10.6911   24.4818    7.5453 C.ar      1 UNK         0.0000
   2348 C(5)       11.3944   24.5055    6.3416 C.ar      1 UNK         0.0000
   2349 C(6)       12.4723   25.3655    6.1867 C.ar      1 UNK         0.0000
   2350 C(7)       14.7766   27.6547    7.8589 C.2       1 UNK         0.0000
   2351 C(8)       15.9000   28.4562    7.2579 C.3       1 UNK         0.0000
   2352 H(1)       12.4175   26.8735    9.2275 H         1 UNK         0.0000
   2353 H(2)       10.5146   25.3547    9.5090 H         1 UNK         0.0000
   2354 H(3)       11.1015   23.8497    5.5310 H         1 UNK         0.0000
   2355 H(4)       13.0192   25.3819    5.2520 H         1 UNK         0.0000
   2356 H(5)        9.3220   23.2777    6.9188 H         1 UNK         0.0000
   2357 H(6)       14.2277   27.1475    5.9999 H         1 UNK         0.0000
   2358 H(7)       15.6816   29.4867    7.3672 H         1 UNK         0.0000
   2359 H(8)       16.0518   28.2490    6.2305 H         1 UNK         0.0000
   2360 H(9)       16.7806   28.2918    7.8227 H         1 UNK         0.0000
   2361 O(1)       16.8924   26.8192   18.2703 O.3       1 UNK         0.0000
   2362 O(2)       21.8663   22.8747   19.5971 O.2       1 UNK         0.0000
   2363 N(1)       21.2153   23.3990   17.4854 N.am      1 UNK         0.0000
   2364 C(1)       20.1079   24.2389   17.7395 C.ar      1 UNK         0.0000
   2365 C(2)       19.3851   24.2408   18.9323 C.ar      1 UNK         0.0000
   2366 C(3)       18.3074   25.1075   19.0889 C.ar      1 UNK         0.0000
   2367 C(4)       17.9371   25.9697   18.0600 C.ar      1 UNK         0.0000
   2368 C(5)       18.6405   25.9460   16.8563 C.ar      1 UNK         0.0000
   2369 C(6)       19.7183   25.0860   16.7014 C.ar      1 UNK         0.0000
   2370 C(7)       22.0226   22.7968   18.3737 C.2       1 UNK         0.0000
   2371 C(8)       23.1461   21.9953   17.7727 C.3       1 UNK         0.0000
   2372 H(1)       19.6636   23.5780   19.7422 H         1 UNK         0.0000
   2373 H(2)       17.7607   25.0968   20.0238 H         1 UNK         0.0000
   2374 H(3)       18.3475   26.6018   16.0457 H         1 UNK         0.0000
   2375 H(4)       20.2652   25.0696   15.7668 H         1 UNK         0.0000
   2376 H(5)       16.5681   27.1738   17.4335 H         1 UNK         0.0000
   2377 H(6)       21.4738   23.3040   16.5147 H         1 UNK         0.0000
   2378 H(7)       22.9276   20.9648   17.8820 H         1 UNK         0.0000
   2379 H(8)       23.2978   22.2025   16.7453 H         1 UNK         0.0000
   2380 H(9)       24.0266   22.1597   18.3375 H         1 UNK         0.0000
   2381 O(1)       16.4197   31.4057   19.4795 O.3       1 UNK         0.0000
   2382 O(2)       11.4458   27.4612   18.1527 O.2       1 UNK         0.0000
   2383 N(1)       12.0969   27.9855   20.2644 N.am      1 UNK         0.0000
   2384 C(1)       13.2042   28.8254   20.0104 C.ar      1 UNK         0.0000
   2385 C(2)       13.9270   28.8273   18.8176 C.ar      1 UNK         0.0000
   2386 C(3)       15.0047   29.6940   18.6609 C.ar      1 UNK         0.0000
   2387 C(4)       15.3750   30.5562   19.6898 C.ar      1 UNK         0.0000
   2388 C(5)       14.6716   30.5325   20.8935 C.ar      1 UNK         0.0000
   2389 C(6)       13.5938   29.6725   21.0484 C.ar      1 UNK         0.0000
   2390 C(7)       11.2895   27.3833   19.3762 C.2       1 UNK         0.0000
   2391 C(8)       10.1661   26.5818   19.9772 C.3       1 UNK         0.0000
   2392 H(1)       13.6486   28.1645   18.0076 H         1 UNK         0.0000
   2393 H(2)       15.5514   29.6833   17.7261 H         1 UNK         0.0000
   2394 H(3)       14.9646   31.1883   21.7041 H         1 UNK         0.0000
   2395 H(4)       13.0469   29.6561   21.9831 H         1 UNK         0.0000
   2396 H(5)       16.7441   31.7603   20.3163 H         1 UNK         0.0000
   2397 H(6)       11.8384   27.8905   21.2352 H         1 UNK         0.0000
   2398 H(7)       10.3845   25.5513   19.8678 H         1 UNK         0.0000
   2399 H(8)       10.0143   26.7890   21.0046 H         1 UNK         0.0000
   2400 H(9)        9.2855   26.7462   19.4124 H         1 UNK         0.0000
   2401 O(1)       20.7477   37.3918    8.9648 O.3       1 UNK         0.0000
   2402 O(2)       15.7738   41.3363    7.6380 O.2       1 UNK         0.0000
   2403 N(1)       16.4248   40.8120    9.7497 N.am      1 UNK         0.0000
   2404 C(1)       17.5321   39.9721    9.4956 C.ar      1 UNK         0.0000
   2405 C(2)       18.2550   39.9702    8.3028 C.ar      1 UNK         0.0000
   2406 C(3)       19.3326   39.1035    8.1462 C.ar      1 UNK         0.0000
   2407 C(4)       19.7030   38.2413    9.1751 C.ar      1 UNK         0.0000
   2408 C(5)       18.9996   38.2650   10.3788 C.ar      1 UNK         0.0000
   2409 C(6)       17.9218   39.1250   10.5337 C.ar      1 UNK         0.0000
   2410 C(7)       15.6175   41.4142    8.8614 C.2       1 UNK         0.0000
   2411 C(8)       14.4940   42.2157    9.4624 C.3       1 UNK         0.0000
   2412 H(1)       17.9765   40.6330    7.4929 H         1 UNK         0.0000
   2413 H(2)       19.8794   39.1142    7.2113 H         1 UNK         0.0000
   2414 H(3)       19.2926   37.6092   11.1894 H         1 UNK         0.0000
   2415 H(4)       17.3749   39.1414   11.4683 H         1 UNK         0.0000
   2416 H(5)       21.0720   37.0372    9.8016 H         1 UNK         0.0000
   2417 H(6)       16.1663   40.9070   10.7204 H         1 UNK         0.0000
   2418 H(7)       14.7125   43.2462    9.3531 H         1 UNK         0.0000
   2419 H(8)       14.3423   42.0085   10.4898 H         1 UNK         0.0000
   2420 H(9)       13.6135   42.0513    8.8976 H         1 UNK         0.0000
   2421 O(1)       10.6191   32.8053   14.7654 O.3       1 UNK         0.0000
   2422 O(2)       15.5930   36.7498   16.0922 O.2       1 UNK         0.0000
   2423 N(1)       14.9419   36.2255   13.9805 N.am      1 UNK         0.0000
   2424 C(1)       13.8346   35.3856   14.2346 C.ar      1 UNK         0.0000
   2425 C(2)       13.1118   35.3837   15.4274 C.ar      1 UNK         0.0000
   2426 C(3)       12.0341   34.5170   15.5840 C.ar      1 UNK         0.0000
   2427 C(4)       11.6638   33.6548   14.5551 C.ar      1 UNK         0.0000
   2428 C(5)       12.3671   33.6785   13.3514 C.ar      1 UNK         0.0000
   2429 C(6)       13.4450   34.5385   13.1965 C.ar      1 UNK         0.0000
   2430 C(7)       15.7493   36.8277   14.8687 C.2       1 UNK         0.0000
   2431 C(8)       16.8727   37.6292   14.2678 C.3       1 UNK         0.0000
   2432 H(1)       13.3902   36.0465   16.2373 H         1 UNK         0.0000
   2433 H(2)       11.4873   34.5277   16.5188 H         1 UNK         0.0000
   2434 H(3)       12.0742   33.0227   12.5408 H         1 UNK         0.0000
   2435 H(4)       13.9919   34.5549   12.2618 H         1 UNK         0.0000
   2436 H(5)       10.2947   32.4507   13.9286 H         1 UNK         0.0000
   2437 H(6)       15.2004   36.3205   13.0098 H         1 UNK         0.0000
   2438 H(7)       16.6543   38.6597   14.3771 H         1 UNK         0.0000
   2439 H(8)       17.0245   37.4220   13.2404 H         1 UNK         0.0000
   2440 H(9)       17.7532   37.4648   14.8326 H         1 UNK         0.0000
   2441 O(1)       14.9470   45.1652    4.2507 O.3       1 UNK         0.0000
   2442 O(2)       19.9209   41.2207    5.5774 O.2       1 UNK         0.0000
   2443 N(1)       19.2699   41.7450    3.4657 N.am      1 UNK         0.0000
   2444 C(1)       18.1625   42.5849    3.7198 C.ar      1 UNK         0.0000
   2445 C(2)       17.4397   42.5868    4.9126 C.ar      1 UNK         0.0000
   2446 C(3)       16.3620   43.4535    5.0693 C.ar      1 UNK         0.0000
   2447 C(4)       15.9917   44.3157    4.0404 C.ar      1 UNK         0.0000
   2448 C(5)       16.6951   44.2920    2.8367 C.ar      1 UNK         0.0000
   2449 C(6)       17.7729   43.4320    2.6817 C.ar      1 UNK         0.0000
   2450 C(7)       20.0772   41.1428    4.3540 C.2       1 UNK         0.0000
   2451 C(8)       21.2007   40.3413    3.7530 C.3       1 UNK         0.0000
   2452 H(1)       17.7182   41.9240    5.7226 H         1 UNK         0.0000
   2453 H(2)       15.8153   43.4428    6.0041 H         1 UNK         0.0000
   2454 H(3)       16.4021   44.9478    2.0261 H         1 UNK         0.0000
   2455 H(4)       18.3198   43.4156    1.7471 H         1 UNK         0.0000
   2456 H(5)       14.6227   45.5198    3.4139 H         1 UNK         0.0000
   2457 H(6)       19.5284   41.6500    2.4950 H         1 UNK         0.0000
   2458 H(7)       20.9822   39.3108    3.8623 H         1 UNK         0.0000
   2459 H(8)       21.3524   40.5485    2.7256 H         1 UNK         0.0000
   2460 H(9)       22.0812   40.5057    4.3178 H         1 UNK         0.0000
   2461 O(1)       14.4743   40.5787    5.4598 O.3       1 UNK         0.0000
   2462 O(2)        9.5004   36.6342    4.1331 O.2       1 UNK         0.0000
   2463 N(1)       10.1515   37.1585    6.2448 N.am      1 UNK         0.0000
   2464 C(1)       11.2588   37.9984    5.9907 C.ar      1 UNK         0.0000
   2465 C(2)       11.9816   38.0003    4.7979 C.ar      1 UNK         0.0000
   2466 C(3)       13.0593   38.8670    4.6412 C.ar      1 UNK         0.0000
   2467 C(4)       13.4296   39.7292    5.6701 C.ar      1 UNK         0.0000
   2468 C(5)       12.7263   39.7055    6.8738 C.ar      1 UNK         0.0000
   2469 C(6)       11.6484   38.8455    7.0288 C.ar      1 UNK         0.0000
   2470 C(7)        9.3441   36.5563    5.3565 C.2       1 UNK         0.0000
   2471 C(8)        8.2207   35.7548    5.9575 C.3       1 UNK         0.0000
   2472 H(1)       11.7032   37.3375    3.9879 H         1 UNK         0.0000
   2473 H(2)       13.6061   38.8563    3.7064 H         1 UNK         0.0000
   2474 H(3)       13.0192   40.3613    7.6844 H         1 UNK         0.0000
   2475 H(4)       11.1015   38.8291    7.9634 H         1 UNK         0.0000
   2476 H(5)       14.7987   40.9333    6.2966 H         1 UNK         0.0000
   2477 H(6)        9.8930   37.0635    7.2155 H         1 UNK         0.0000
   2478 H(7)        8.4391   34.7243    5.8482 H         1 UNK         0.0000
   2479 H(8)        8.0689   35.9620    6.9849 H         1 UNK         0.0000
   2480 H(9)        7.3401   35.9192    5.3927 H         1 UNK         0.0000
   2481 O(1)       21.7204   37.3918   15.9746 O.3       1 UNK         0.0000
   2482 O(2)       16.7465   41.3363   14.6478 O.2       1 UNK         0.0000
   2483 N(1)       17.3975   40.8120   16.7595 N.am      1 UNK         0.0000
   2484 C(1)       18.5048   39.9721   16.5055 C.ar      1 UNK         0.0000
   2485 C(2)       19.2277   39.9702   15.3126 C.ar      1 UNK         0.0000
   2486 C(3)       20.3053   39.1035   15.1560 C.ar      1 UNK         0.0000
   2487 C(4)       20.6756   38.2413   16.1849 C.ar      1 UNK         0.0000
   2488 C(5)       19.9723   38.2650   17.3886 C.ar      1 UNK         0.0000
   2489 C(6)       18.8945   39.1250   17.5435 C.ar      1 UNK         0.0000
   2490 C(7)       16.5902   41.4142   15.8713 C.2       1 UNK         0.0000
   2491 C(8)       15.4667   42.2157   16.4723 C.3       1 UNK         0.0000
   2492 H(1)       18.9492   40.6330   14.5027 H         1 UNK         0.0000
   2493 H(2)       20.8521   39.1142   14.2212 H         1 UNK         0.0000
   2494 H(3)       20.2653   37.6092   18.1992 H         1 UNK         0.0000
   2495 H(4)       18.3476   39.1414   18.4782 H         1 UNK         0.0000
   2496 H(5)       22.0447   37.0372   16.8114 H         1 UNK         0.0000
   2497 H(6)       17.1390   40.9070   17.7302 H         1 UNK         0.0000
   2498 H(7)       15.6852   43.2462   16.3629 H         1 UNK         0.0000
   2499 H(8)       15.3149   42.0085   17.4996 H         1 UNK         0.0000
   2500 H(9)       14.5862   42.0513   15.9074 H         1 UNK         0.0000
   2501 O(1)       23.1658   32.8053   21.7753 O.3       1 UNK         0.0000
   2502 O(2)       28.1396   36.7498   23.1020 O.2       1 UNK         0.0000
   2503 N(1)       27.4886   36.2255   20.9903 N.am      1 UNK         0.0000
   2504 C(1)       26.3813   35.3856   21.2444 C.ar      1 UNK         0.0000
   2505 C(2)       25.6585   35.3837   22.4372 C.ar      1 UNK         0.0000
   2506 C(3)       24.5808   34.5170   22.5939 C.ar      1 UNK         0.0000
   2507 C(4)       24.2105   33.6548   21.5650 C.ar      1 UNK         0.0000
   2508 C(5)       24.9138   33.6785   20.3613 C.ar      1 UNK         0.0000
   2509 C(6)       25.9916   34.5385   20.2063 C.ar      1 UNK         0.0000
   2510 C(7)       28.2960   36.8277   21.8786 C.2       1 UNK         0.0000
   2511 C(8)       29.4194   37.6292   21.2776 C.3       1 UNK         0.0000
   2512 H(1)       25.9369   36.0465   23.2472 H         1 UNK         0.0000
   2513 H(2)       24.0340   34.5277   23.5287 H         1 UNK         0.0000
   2514 H(3)       24.6209   33.0227   19.5507 H         1 UNK         0.0000
   2515 H(4)       26.5386   34.5549   19.2717 H         1 UNK         0.0000
   2516 H(5)       22.8414   32.4507   20.9385 H         1 UNK         0.0000
   2517 H(6)       27.7471   36.3205   20.0196 H         1 UNK         0.0000
   2518 H(7)       29.2010   38.6597   21.3869 H         1 UNK         0.0000
   2519 H(8)       29.5712   37.4220   20.2502 H         1 UNK         0.0000
   2520 H(9)       30.2999   37.4648   21.8424 H         1 UNK         0.0000
   2521 O(1)       15.9197   45.1652   11.2605 O.3       1 UNK         0.0000
   2522 O(2)       20.8936   41.2207   12.5873 O.2       1 UNK         0.0000
   2523 N(1)       20.2426   41.7450   10.4756 N.am      1 UNK         0.0000
   2524 C(1)       19.1352   42.5849   10.7296 C.ar      1 UNK         0.0000
   2525 C(2)       18.4124   42.5868   11.9225 C.ar      1 UNK         0.0000
   2526 C(3)       17.3347   43.4535   12.0791 C.ar      1 UNK         0.0000
   2527 C(4)       16.9644   44.3157   11.0502 C.ar      1 UNK         0.0000
   2528 C(5)       17.6678   44.2920    9.8465 C.ar      1 UNK         0.0000
   2529 C(6)       18.7456   43.4320    9.6916 C.ar      1 UNK         0.0000
   2530 C(7)       21.0499   41.1428   11.3638 C.2       1 UNK         0.0000
   2531 C(8)       22.1734   40.3413   10.7628 C.3       1 UNK         0.0000
   2532 H(1)       18.6909   41.9240   12.7324 H         1 UNK         0.0000
   2533 H(2)       16.7880   43.4428   13.0139 H         1 UNK         0.0000
   2534 H(3)       17.3748   44.9478    9.0359 H         1 UNK         0.0000
   2535 H(4)       19.2925   43.4156    8.7569 H         1 UNK         0.0000
   2536 H(5)       15.5954   45.5198   10.4237 H         1 UNK         0.0000
   2537 H(6)       20.5011   41.6500    9.5049 H         1 UNK         0.0000
   2538 H(7)       21.9549   39.3108   10.8722 H         1 UNK         0.0000
   2539 H(8)       22.3251   40.5485    9.7355 H         1 UNK         0.0000
   2540 H(9)       23.0539   40.5057   11.3277 H         1 UNK         0.0000
   2541 O(1)       27.0210   40.5787   12.4697 O.3       1 UNK         0.0000
   2542 O(2)       22.0471   36.6342   11.1429 O.2       1 UNK         0.0000
   2543 N(1)       22.6982   37.1585   13.2546 N.am      1 UNK         0.0000
   2544 C(1)       23.8055   37.9984   13.0005 C.ar      1 UNK         0.0000
   2545 C(2)       24.5283   38.0003   11.8077 C.ar      1 UNK         0.0000
   2546 C(3)       25.6060   38.8670   11.6511 C.ar      1 UNK         0.0000
   2547 C(4)       25.9763   39.7292   12.6800 C.ar      1 UNK         0.0000
   2548 C(5)       25.2729   39.7055   13.8837 C.ar      1 UNK         0.0000
   2549 C(6)       24.1951   38.8455   14.0386 C.ar      1 UNK         0.0000
   2550 C(7)       21.8908   36.5563   12.3664 C.2       1 UNK         0.0000
   2551 C(8)       20.7674   35.7548   12.9673 C.3       1 UNK         0.0000
   2552 H(1)       24.2499   37.3375   10.9978 H         1 UNK         0.0000
   2553 H(2)       26.1528   38.8563   10.7162 H         1 UNK         0.0000
   2554 H(3)       25.5659   40.3613   14.6943 H         1 UNK         0.0000
   2555 H(4)       23.6482   38.8291   14.9733 H         1 UNK         0.0000
   2556 H(5)       27.3454   40.9333   13.3065 H         1 UNK         0.0000
   2557 H(6)       22.4397   37.0635   14.2253 H         1 UNK         0.0000
   2558 H(7)       20.9858   34.7243   12.8580 H         1 UNK         0.0000
   2559 H(8)       20.6156   35.9620   13.9947 H         1 UNK         0.0000
   2560 H(9)       19.8868   35.9192   12.4025 H         1 UNK         0.0000
   2561 O(1)       22.6931   37.3918    1.7534 O.3       1 UNK         0.0000
   2562 O(2)       17.7192   41.3363    0.4267 O.2       1 UNK         0.0000
   2563 N(1)       18.3702   40.8120    2.5384 N.am      1 UNK         0.0000
   2564 C(1)       19.4775   39.9721    2.2843 C.ar      1 UNK         0.0000
   2565 C(2)       20.2004   39.9702    1.0915 C.ar      1 UNK         0.0000
   2566 C(3)       21.2780   39.1035    0.9348 C.ar      1 UNK         0.0000
   2567 C(4)       21.6483   38.2413    1.9637 C.ar      1 UNK         0.0000
   2568 C(5)       20.9450   38.2650    3.1674 C.ar      1 UNK         0.0000
   2569 C(6)       19.8672   39.1250    3.3223 C.ar      1 UNK         0.0000
   2570 C(7)       17.5629   41.4142    1.6501 C.2       1 UNK         0.0000
   2571 C(8)       16.4394   42.2157    2.2511 C.3       1 UNK         0.0000
   2572 H(1)       19.9219   40.6330    0.2815 H         1 UNK         0.0000
   2573 H(2)       21.8248   39.1142    0.0000 H         1 UNK         0.0000
   2574 H(3)       21.2379   37.6092    3.9780 H         1 UNK         0.0000
   2575 H(4)       19.3203   39.1414    4.2570 H         1 UNK         0.0000
   2576 H(5)       23.0174   37.0372    2.5902 H         1 UNK         0.0000
   2577 H(6)       18.1117   40.9070    3.5091 H         1 UNK         0.0000
   2578 H(7)       16.6579   43.2462    2.1418 H         1 UNK         0.0000
   2579 H(8)       16.2876   42.0085    3.2785 H         1 UNK         0.0000
   2580 H(9)       15.5589   42.0513    1.6863 H         1 UNK         0.0000
   2581 O(1)        9.6464   32.8053    7.7556 O.3       1 UNK         0.0000
   2582 O(2)       14.6203   36.7498    9.0824 O.2       1 UNK         0.0000
   2583 N(1)       13.9692   36.2255    6.9707 N.am      1 UNK         0.0000
   2584 C(1)       12.8619   35.3856    7.2247 C.ar      1 UNK         0.0000
   2585 C(2)       12.1391   35.3837    8.4175 C.ar      1 UNK         0.0000
   2586 C(3)       11.0614   34.5170    8.5742 C.ar      1 UNK         0.0000
   2587 C(4)       10.6911   33.6548    7.5453 C.ar      1 UNK         0.0000
   2588 C(5)       11.3944   33.6785    6.3416 C.ar      1 UNK         0.0000
   2589 C(6)       12.4723   34.5385    6.1867 C.ar      1 UNK         0.0000
   2590 C(7)       14.7766   36.8277    7.8589 C.2       1 UNK         0.0000
   2591 C(8)       15.9000   37.6292    7.2579 C.3       1 UNK         0.0000
   2592 H(1)       12.4175   36.0465    9.2275 H         1 UNK         0.0000
   2593 H(2)       10.5146   34.5277    9.5090 H         1 UNK         0.0000
   2594 H(3)       11.1015   33.0227    5.5310 H         1 UNK         0.0000
   2595 H(4)       13.0192   34.5549    5.2520 H         1 UNK         0.0000
   2596 H(5)        9.3220   32.4507    6.9188 H         1 UNK         0.0000
   2597 H(6)       14.2277   36.3205    5.9999 H         1 UNK         0.0000
   2598 H(7)       15.6816   38.6597    7.3672 H         1 UNK         0.0000
   2599 H(8)       16.0518   37.4220    6.2305 H         1 UNK         0.0000
   2600 H(9)       16.7806   37.4648    7.8227 H         1 UNK         0.0000
   2601 O(1)       16.8924   35.9922   18.2703 O.3       1 UNK         0.0000
   2602 O(2)       21.8663   32.0477   19.5971 O.2       1 UNK         0.0000
   2603 N(1)       21.2153   32.5720   17.4854 N.am      1 UNK         0.0000
   2604 C(1)       20.1079   33.4119   17.7395 C.ar      1 UNK         0.0000
   2605 C(2)       19.3851   33.4138   18.9323 C.ar      1 UNK         0.0000
   2606 C(3)       18.3074   34.2805   19.0889 C.ar      1 UNK         0.0000
   2607 C(4)       17.9371   35.1427   18.0600 C.ar      1 UNK         0.0000
   2608 C(5)       18.6405   35.1190   16.8563 C.ar      1 UNK         0.0000
   2609 C(6)       19.7183   34.2590   16.7014 C.ar      1 UNK         0.0000
   2610 C(7)       22.0226   31.9698   18.3737 C.2       1 UNK         0.0000
   2611 C(8)       23.1461   31.1683   17.7727 C.3       1 UNK         0.0000
   2612 H(1)       19.6636   32.7510   19.7422 H         1 UNK         0.0000
   2613 H(2)       17.7607   34.2698   20.0238 H         1 UNK         0.0000
   2614 H(3)       18.3475   35.7748   16.0457 H         1 UNK         0.0000
   2615 H(4)       20.2652   34.2426   15.7668 H         1 UNK         0.0000
   2616 H(5)       16.5681   36.3468   17.4335 H         1 UNK         0.0000
   2617 H(6)       21.4738   32.4770   16.5147 H         1 UNK         0.0000
   2618 H(7)       22.9276   30.1378   17.8820 H         1 UNK         0.0000
   2619 H(8)       23.2978   31.3755   16.7453 H         1 UNK         0.0000
   2620 H(9)       24.0266   31.3327   18.3375 H         1 UNK         0.0000
   2621 O(1)       16.4197   40.5787   19.4795 O.3       1 UNK         0.0000
   2622 O(2)       11.4458   36.6342   18.1527 O.2       1 UNK         0.0000
   2623 N(1)       12.0969   37.1585   20.2644 N.am      1 UNK         0.0000
   2624 C(1)       13.2042   37.9984   20.0104 C.ar      1 UNK         0.0000
   2625 C(2)       13.9270   38.0003   18.8176 C.ar      1 UNK         0.0000
   2626 C(3)       15.0047   38.8670   18.6609 C.ar      1 UNK         0.0000
   2627 C(4)       15.3750   39.7292   19.6898 C.ar      1 UNK         0.0000
   2628 C(5)       14.6716   39.7055   20.8935 C.ar      1 UNK         0.0000
   2629 C(6)       13.5938   38.8455   21.0484 C.ar      1 UNK         0.0000
   2630 C(7)       11.2895   36.5563   19.3762 C.2       1 UNK         0.0000
   2631 C(8)       10.1661   35.7548   19.9772 C.3       1 UNK         0.0000
   2632 H(1)       13.6486   37.3375   18.0076 H         1 UNK         0.0000
   2633 H(2)       15.5514   38.8563   17.7261 H         1 UNK         0.0000
   2634 H(3)       14.9646   40.3613   21.7041 H         1 UNK         0.0000
   2635 H(4)       13.0469   38.8291   21.9831 H         1 UNK         0.0000
   2636 H(5)       16.7441   40.9333   20.3163 H         1 UNK         0.0000
   2637 H(6)       11.8384   37.0635   21.2352 H         1 UNK         0.0000
   2638 H(7)       10.3845   34.7243   19.8678 H         1 UNK         0.0000
   2639 H(8)       10.0143   35.9620   21.0046 H         1 UNK         0.0000
   2640 H(9)        9.2855   35.9192   19.4124 H         1 UNK         0.0000
   2641 O(1)       20.7477   46.5648    8.9648 O.3       1 UNK         0.0000
   2642 O(2)       15.7738   50.5093    7.6380 O.2       1 UNK         0.0000
   2643 N(1)       16.4248   49.9850    9.7497 N.am      1 UNK         0.0000
   2644 C(1)       17.5321   49.1451    9.4956 C.ar      1 UNK         0.0000
   2645 C(2)       18.2550   49.1432    8.3028 C.ar      1 UNK         0.0000
   2646 C(3)       19.3326   48.2765    8.1462 C.ar      1 UNK         0.0000
   2647 C(4)       19.7030   47.4143    9.1751 C.ar      1 UNK         0.0000
   2648 C(5)       18.9996   47.4380   10.3788 C.ar      1 UNK         0.0000
   2649 C(6)       17.9218   48.2980   10.5337 C.ar      1 UNK         0.0000
   2650 C(7)       15.6175   50.5872    8.8614 C.2       1 UNK         0.0000
   2651 C(8)       14.4940   51.3887    9.4624 C.3       1 UNK         0.0000
   2652 H(1)       17.9765   49.8060    7.4929 H         1 UNK         0.0000
   2653 H(2)       19.8794   48.2872    7.2113 H         1 UNK         0.0000
   2654 H(3)       19.2926   46.7822   11.1894 H         1 UNK         0.0000
   2655 H(4)       17.3749   48.3144   11.4683 H         1 UNK         0.0000
   2656 H(5)       21.0720   46.2102    9.8016 H         1 UNK         0.0000
   2657 H(6)       16.1663   50.0801   10.7204 H         1 UNK         0.0000
   2658 H(7)       14.7125   52.4192    9.3531 H         1 UNK         0.0000
   2659 H(8)       14.3423   51.1815   10.4898 H         1 UNK         0.0000
   2660 H(9)       13.6135   51.2243    8.8976 H         1 UNK         0.0000
   2661 O(1)       10.6191   41.9783   14.7654 O.3       1 UNK         0.0000
   2662 O(2)       15.5930   45.9228   16.0922 O.2       1 UNK         0.0000
   2663 N(1)       14.9419   45.3985   13.9805 N.am      1 UNK         0.0000
   2664 C(1)       13.8346   44.5586   14.2346 C.ar      1 UNK         0.0000
   2665 C(2)       13.1118   44.5567   15.4274 C.ar      1 UNK         0.0000
   2666 C(3)       12.0341   43.6900   15.5840 C.ar      1 UNK         0.0000
   2667 C(4)       11.6638   42.8278   14.5551 C.ar      1 UNK         0.0000
   2668 C(5)       12.3671   42.8515   13.3514 C.ar      1 UNK         0.0000
   2669 C(6)       13.4450   43.7115   13.1965 C.ar      1 UNK         0.0000
   2670 C(7)       15.7493   46.0007   14.8687 C.2       1 UNK         0.0000
   2671 C(8)       16.8727   46.8022   14.2678 C.3       1 UNK         0.0000
   2672 H(1)       13.3902   45.2195   16.2373 H         1 UNK         0.0000
   2673 H(2)       11.4873   43.7007   16.5188 H         1 UNK         0.0000
   2674 H(3)       12.0742   42.1957   12.5408 H         1 UNK         0.0000
   2675 H(4)       13.9919   43.7279   12.2618 H         1 UNK         0.0000
   2676 H(5)       10.2947   41.6237   13.9286 H         1 UNK         0.0000
   2677 H(6)       15.2004   45.4936   13.0098 H         1 UNK         0.0000
   2678 H(7)       16.6543   47.8327   14.3771 H         1 UNK         0.0000
   2679 H(8)       17.0245   46.5950   13.2404 H         1 UNK         0.0000
   2680 H(9)       17.7532   46.6378   14.8326 H         1 UNK         0.0000
   2681 O(1)       14.9470   54.3382    4.2507 O.3       1 UNK         0.0000
   2682 O(2)       19.9209   50.3937    5.5774 O.2       1 UNK         0.0000
   2683 N(1)       19.2699   50.9180    3.4657 N.am      1 UNK         0.0000
   2684 C(1)       18.1625   51.7579    3.7198 C.ar      1 UNK         0.0000
   2685 C(2)       17.4397   51.7598    4.9126 C.ar      1 UNK         0.0000
   2686 C(3)       16.3620   52.6265    5.0693 C.ar      1 UNK         0.0000
   2687 C(4)       15.9917   53.4887    4.0404 C.ar      1 UNK         0.0000
   2688 C(5)       16.6951   53.4650    2.8367 C.ar      1 UNK         0.0000
   2689 C(6)       17.7729   52.6050    2.6817 C.ar      1 UNK         0.0000
   2690 C(7)       20.0772   50.3158    4.3540 C.2       1 UNK         0.0000
   2691 C(8)       21.2007   49.5143    3.7530 C.3       1 UNK         0.0000
   2692 H(1)       17.7182   51.0970    5.7226 H         1 UNK         0.0000
   2693 H(2)       15.8153   52.6158    6.0041 H         1 UNK         0.0000
   2694 H(3)       16.4021   54.1208    2.0261 H         1 UNK         0.0000
   2695 H(4)       18.3198   52.5886    1.7471 H         1 UNK         0.0000
   2696 H(5)       14.6227   54.6928    3.4139 H         1 UNK         0.0000
   2697 H(6)       19.5284   50.8230    2.4950 H         1 UNK         0.0000
   2698 H(7)       20.9822   48.4838    3.8623 H         1 UNK         0.0000
   2699 H(8)       21.3524   49.7215    2.7256 H         1 UNK         0.0000
   2700 H(9)       22.0812   49.6787    4.3178 H         1 UNK         0.0000
   2701 O(1)       14.4743   49.7517    5.4598 O.3       1 UNK         0.0000
   2702 O(2)        9.5004   45.8072    4.1331 O.2       1 UNK         0.0000
   2703 N(1)       10.1515   46.3315    6.2448 N.am      1 UNK         0.0000
   2704 C(1)       11.2588   47.1714    5.9907 C.ar      1 UNK         0.0000
   2705 C(2)       11.9816   47.1733    4.7979 C.ar      1 UNK         0.0000
   2706 C(3)       13.0593   48.0400    4.6412 C.ar      1 UNK         0.0000
   2707 C(4)       13.4296   48.9022    5.6701 C.ar      1 UNK         0.0000
   2708 C(5)       12.7263   48.8785    6.8738 C.ar      1 UNK         0.0000
   2709 C(6)       11.6484   48.0185    7.0288 C.ar      1 UNK         0.0000
   2710 C(7)        9.3441   45.7293    5.3565 C.2       1 UNK         0.0000
   2711 C(8)        8.2207   44.9278    5.9575 C.3       1 UNK         0.0000
   2712 H(1)       11.7032   46.5105    3.9879 H         1 UNK         0.0000
   2713 H(2)       13.6061   48.0293    3.7064 H         1 UNK         0.0000
   2714 H(3)       13.0192   49.5343    7.6844 H         1 UNK         0.0000
   2715 H(4)       11.1015   48.0021    7.9634 H         1 UNK         0.0000
   2716 H(5)       14.7987   50.1063    6.2966 H         1 UNK         0.0000
   2717 H(6)        9.8930   46.2365    7.2155 H         1 UNK         0.0000
   2718 H(7)        8.4391   43.8973    5.8482 H         1 UNK         0.0000
   2719 H(8)        8.0689   45.1350    6.9849 H         1 UNK         0.0000
   2720 H(9)        7.3401   45.0922    5.3927 H         1 UNK         0.0000
   2721 O(1)       21.7204   46.5648   15.9746 O.3       1 UNK         0.0000
   2722 O(2)       16.7465   50.5093   14.6478 O.2       1 UNK         0.0000
   2723 N(1)       17.3975   49.9850   16.7595 N.am      1 UNK         0.0000
   2724 C(1)       18.5048   49.1451   16.5055 C.ar      1 UNK         0.0000
   2725 C(2)       19.2277   49.1432   15.3126 C.ar      1 UNK         0.0000
   2726 C(3)       20.3053   48.2765   15.1560 C.ar      1 UNK         0.0000
   2727 C(4)       20.6756   47.4143   16.1849 C.ar      1 UNK         0.0000
   2728 C(5)       19.9723   47.4380   17.3886 C.ar      1 UNK         0.0000
   2729 C(6)       18.8945   48.2980   17.5435 C.ar      1 UNK         0.0000
   2730 C(7)       16.5902   50.5872   15.8713 C.2       1 UNK         0.0000
   2731 C(8)       15.4667   51.3887   16.4723 C.3       1 UNK         0.0000
   2732 H(1)       18.9492   49.8060   14.5027 H         1 UNK         0.0000
   2733 H(2)       20.8521   48.2872   14.2212 H         1 UNK         0.0000
   2734 H(3)       20.2653   46.7822   18.1992 H         1 UNK         0.0000
   2735 H(4)       18.3476   48.3144   18.4782 H         1 UNK         0.0000
   2736 H(5)       22.0447   46.2102   16.8114 H         1 UNK         0.0000
   2737 H(6)       17.1390   50.0801   17.7302 H         1 UNK         0.0000
   2738 H(7)       15.6852   52.4192   16.3629 H         1 UNK         0.0000
   2739 H(8)       15.3149   51.1815   17.4996 H         1 UNK         0.0000
   2740 H(9)       14.5862   51.2243   15.9074 H         1 UNK         0.0000
   2741 O(1)       23.1658   41.9783   21.7753 O.3       1 UNK         0.0000
   2742 O(2)       28.1396   45.9228   23.1020 O.2       1 UNK         0.0000
   2743 N(1)       27.4886   45.3985   20.9903 N.am      1 UNK         0.0000
   2744 C(1)       26.3813   44.5586   21.2444 C.ar      1 UNK         0.0000
   2745 C(2)       25.6585   44.5567   22.4372 C.ar      1 UNK         0.0000
   2746 C(3)       24.5808   43.6900   22.5939 C.ar      1 UNK         0.0000
   2747 C(4)       24.2105   42.8278   21.5650 C.ar      1 UNK         0.0000
   2748 C(5)       24.9138   42.8515   20.3613 C.ar      1 UNK         0.0000
   2749 C(6)       25.9916   43.7115   20.2063 C.ar      1 UNK         0.0000
   2750 C(7)       28.2960   46.0007   21.8786 C.2       1 UNK         0.0000
   2751 C(8)       29.4194   46.8022   21.2776 C.3       1 UNK         0.0000
   2752 H(1)       25.9369   45.2195   23.2472 H         1 UNK         0.0000
   2753 H(2)       24.0340   43.7007   23.5287 H         1 UNK         0.0000
   2754 H(3)       24.6209   42.1957   19.5507 H         1 UNK         0.0000
   2755 H(4)       26.5386   43.7279   19.2717 H         1 UNK         0.0000
   2756 H(5)       22.8414   41.6237   20.9385 H         1 UNK         0.0000
   2757 H(6)       27.7471   45.4936   20.0196 H         1 UNK         0.0000
   2758 H(7)       29.2010   47.8327   21.3869 H         1 UNK         0.0000
   2759 H(8)       29.5712   46.5950   20.2502 H         1 UNK         0.0000
   2760 H(9)       30.2999   46.6378   21.8424 H         1 UNK         0.0000
   2761 O(1)       15.9197   54.3382   11.2605 O.3       1 UNK         0.0000
   2762 O(2)       20.8936   50.3937   12.5873 O.2       1 UNK         0.0000
   2763 N(1)       20.2426   50.9180   10.4756 N.am      1 UNK         0.0000
   2764 C(1)       19.1352   51.7579   10.7296 C.ar      1 UNK         0.0000
   2765 C(2)       18.4124   51.7598   11.9225 C.ar      1 UNK         0.0000
   2766 C(3)       17.3347   52.6265   12.0791 C.ar      1 UNK         0.0000
   2767 C(4)       16.9644   53.4887   11.0502 C.ar      1 UNK         0.0000
   2768 C(5)       17.6678   53.4650    9.8465 C.ar      1 UNK         0.0000
   2769 C(6)       18.7456   52.6050    9.6916 C.ar      1 UNK         0.0000
   2770 C(7)       21.0499   50.3158   11.3638 C.2       1 UNK         0.0000
   2771 C(8)       22.1734   49.5143   10.7628 C.3       1 UNK         0.0000
   2772 H(1)       18.6909   51.0970   12.7324 H         1 UNK         0.0000
   2773 H(2)       16.7880   52.6158   13.0139 H         1 UNK         0.0000
   2774 H(3)       17.3748   54.1208    9.0359 H         1 UNK         0.0000
   2775 H(4)       19.2925   52.5886    8.7569 H         1 UNK         0.0000
   2776 H(5)       15.5954   54.6928   10.4237 H         1 UNK         0.0000
   2777 H(6)       20.5011   50.8230    9.5049 H         1 UNK         0.0000
   2778 H(7)       21.9549   48.4838   10.8722 H         1 UNK         0.0000
   2779 H(8)       22.3251   49.7215    9.7355 H         1 UNK         0.0000
   2780 H(9)       23.0539   49.6787   11.3277 H         1 UNK         0.0000
   2781 O(1)       27.0210   49.7517   12.4697 O.3       1 UNK         0.0000
   2782 O(2)       22.0471   45.8072   11.1429 O.2       1 UNK         0.0000
   2783 N(1)       22.6982   46.3315   13.2546 N.am      1 UNK         0.0000
   2784 C(1)       23.8055   47.1714   13.0005 C.ar      1 UNK         0.0000
   2785 C(2)       24.5283   47.1733   11.8077 C.ar      1 UNK         0.0000
   2786 C(3)       25.6060   48.0400   11.6511 C.ar      1 UNK         0.0000
   2787 C(4)       25.9763   48.9022   12.6800 C.ar      1 UNK         0.0000
   2788 C(5)       25.2729   48.8785   13.8837 C.ar      1 UNK         0.0000
   2789 C(6)       24.1951   48.0185   14.0386 C.ar      1 UNK         0.0000
   2790 C(7)       21.8908   45.7293   12.3664 C.2       1 UNK         0.0000
   2791 C(8)       20.7674   44.9278   12.9673 C.3       1 UNK         0.0000
   2792 H(1)       24.2499   46.5105   10.9978 H         1 UNK         0.0000
   2793 H(2)       26.1528   48.0293   10.7162 H         1 UNK         0.0000
   2794 H(3)       25.5659   49.5343   14.6943 H         1 UNK         0.0000
   2795 H(4)       23.6482   48.0021   14.9733 H         1 UNK         0.0000
   2796 H(5)       27.3454   50.1063   13.3065 H         1 UNK         0.0000
   2797 H(6)       22.4397   46.2365   14.2253 H         1 UNK         0.0000
   2798 H(7)       20.9858   43.8973   12.8580 H         1 UNK         0.0000
   2799 H(8)       20.6156   45.1350   13.9947 H         1 UNK         0.0000
   2800 H(9)       19.8868   45.0922   12.4025 H         1 UNK         0.0000
   2801 O(1)       22.6931   46.5648    1.7534 O.3       1 UNK         0.0000
   2802 O(2)       17.7192   50.5093    0.4267 O.2       1 UNK         0.0000
   2803 N(1)       18.3702   49.9850    2.5384 N.am      1 UNK         0.0000
   2804 C(1)       19.4775   49.1451    2.2843 C.ar      1 UNK         0.0000
   2805 C(2)       20.2004   49.1432    1.0915 C.ar      1 UNK         0.0000
   2806 C(3)       21.2780   48.2765    0.9348 C.ar      1 UNK         0.0000
   2807 C(4)       21.6483   47.4143    1.9637 C.ar      1 UNK         0.0000
   2808 C(5)       20.9450   47.4380    3.1674 C.ar      1 UNK         0.0000
   2809 C(6)       19.8672   48.2980    3.3223 C.ar      1 UNK         0.0000
   2810 C(7)       17.5629   50.5872    1.6501 C.2       1 UNK         0.0000
   2811 C(8)       16.4394   51.3887    2.2511 C.3       1 UNK         0.0000
   2812 H(1)       19.9219   49.8060    0.2815 H         1 UNK         0.0000
   2813 H(2)       21.8248   48.2872    0.0000 H         1 UNK         0.0000
   2814 H(3)       21.2379   46.7822    3.9780 H         1 UNK         0.0000
   2815 H(4)       19.3203   48.3144    4.2570 H         1 UNK         0.0000
   2816 H(5)       23.0174   46.2102    2.5902 H         1 UNK         0.0000
   2817 H(6)       18.1117   50.0801    3.5091 H         1 UNK         0.0000
   2818 H(7)       16.6579   52.4192    2.1418 H         1 UNK         0.0000
   2819 H(8)       16.2876   51.1815    3.2785 H         1 UNK         0.0000
   2820 H(9)       15.5589   51.2243    1.6863 H         1 UNK         0.0000
   2821 O(1)        9.6464   41.9783    7.7556 O.3       1 UNK         0.0000
   2822 O(2)       14.6203   45.9228    9.0824 O.2       1 UNK         0.0000
   2823 N(1)       13.9692   45.3985    6.9707 N.am      1 UNK         0.0000
   2824 C(1)       12.8619   44.5586    7.2247 C.ar      1 UNK         0.0000
   2825 C(2)       12.1391   44.5567    8.4175 C.ar      1 UNK         0.0000
   2826 C(3)       11.0614   43.6900    8.5742 C.ar      1 UNK         0.0000
   2827 C(4)       10.6911   42.8278    7.5453 C.ar      1 UNK         0.0000
   2828 C(5)       11.3944   42.8515    6.3416 C.ar      1 UNK         0.0000
   2829 C(6)       12.4723   43.7115    6.1867 C.ar      1 UNK         0.0000
   2830 C(7)       14.7766   46.0007    7.8589 C.2       1 UNK         0.0000
   2831 C(8)       15.9000   46.8022    7.2579 C.3       1 UNK         0.0000
   2832 H(1)       12.4175   45.2195    9.2275 H         1 UNK         0.0000
   2833 H(2)       10.5146   43.7007    9.5090 H         1 UNK         0.0000
   2834 H(3)       11.1015   42.1957    5.5310 H         1 UNK         0.0000
   2835 H(4)       13.0192   43.7279    5.2520 H         1 UNK         0.0000
   2836 H(5)        9.3220   41.6237    6.9188 H         1 UNK         0.0000
   2837 H(6)       14.2277   45.4936    5.9999 H         1 UNK         0.0000
   2838 H(7)       15.6816   47.8327    7.3672 H         1 UNK         0.0000
   2839 H(8)       16.0518   46.5950    6.2305 H         1 UNK         0.0000
   2840 H(9)       16.7806   46.6378    7.8227 H         1 UNK         0.0000
   2841 O(1)       16.8924   45.1652   18.2703 O.3       1 UNK         0.0000
   2842 O(2)       21.8663   41.2207   19.5971 O.2       1 UNK         0.0000
   2843 N(1)       21.2153   41.7450   17.4854 N.am      1 UNK         0.0000
   2844 C(1)       20.1079   42.5849   17.7395 C.ar      1 UNK         0.0000
   2845 C(2)       19.3851   42.5868   18.9323 C.ar      1 UNK         0.0000
   2846 C(3)       18.3074   43.4535   19.0889 C.ar      1 UNK         0.0000
   2847 C(4)       17.9371   44.3157   18.0600 C.ar      1 UNK         0.0000
   2848 C(5)       18.6405   44.2920   16.8563 C.ar      1 UNK         0.0000
   2849 C(6)       19.7183   43.4320   16.7014 C.ar      1 UNK         0.0000
   2850 C(7)       22.0226   41.1428   18.3737 C.2       1 UNK         0.0000
   2851 C(8)       23.1461   40.3413   17.7727 C.3       1 UNK         0.0000
   2852 H(1)       19.6636   41.9240   19.7422 H         1 UNK         0.0000
   2853 H(2)       17.7607   43.4428   20.0238 H         1 UNK         0.0000
   2854 H(3)       18.3475   44.9478   16.0457 H         1 UNK         0.0000
   2855 H(4)       20.2652   43.4156   15.7668 H         1 UNK         0.0000
   2856 H(5)       16.5681   45.5198   17.4335 H         1 UNK         0.0000
   2857 H(6)       21.4738   41.6500   16.5147 H         1 UNK         0.0000
   2858 H(7)       22.9276   39.3108   17.8820 H         1 UNK         0.0000
   2859 H(8)       23.2978   40.5485   16.7453 H         1 UNK         0.0000
   2860 H(9)       24.0266   40.5057   18.3375 H         1 UNK         0.0000
   2861 O(1)       16.4197   49.7517   19.4795 O.3       1 UNK         0.0000
   2862 O(2)       11.4458   45.8072   18.1527 O.2       1 UNK         0.0000
   2863 N(1)       12.0969   46.3315   20.2644 N.am      1 UNK         0.0000
   2864 C(1)       13.2042   47.1714   20.0104 C.ar      1 UNK         0.0000
   2865 C(2)       13.9270   47.1733   18.8176 C.ar      1 UNK         0.0000
   2866 C(3)       15.0047   48.0400   18.6609 C.ar      1 UNK         0.0000
   2867 C(4)       15.3750   48.9022   19.6898 C.ar      1 UNK         0.0000
   2868 C(5)       14.6716   48.8785   20.8935 C.ar      1 UNK         0.0000
   2869 C(6)       13.5938   48.0185   21.0484 C.ar      1 UNK         0.0000
   2870 C(7)       11.2895   45.7293   19.3762 C.2       1 UNK         0.0000
   2871 C(8)       10.1661   44.9278   19.9772 C.3       1 UNK         0.0000
   2872 H(1)       13.6486   46.5105   18.0076 H         1 UNK         0.0000
   2873 H(2)       15.5514   48.0293   17.7261 H         1 UNK         0.0000
   2874 H(3)       14.9646   49.5343   21.7041 H         1 UNK         0.0000
   2875 H(4)       13.0469   48.0021   21.9831 H         1 UNK         0.0000
   2876 H(5)       16.7441   50.1063   20.3163 H         1 UNK         0.0000
   2877 H(6)       11.8384   46.2365   21.2352 H         1 UNK         0.0000
   2878 H(7)       10.3845   43.8973   19.8678 H         1 UNK         0.0000
   2879 H(8)       10.0143   45.1350   21.0046 H         1 UNK         0.0000
   2880 H(9)        9.2855   45.0922   19.4124 H         1 UNK         0.0000
   2881 O(1)       32.3217    0.6998    8.9648 O.3       1 UNK         0.0000
   2882 O(2)       27.3478    4.6443    7.6380 O.2       1 UNK         0.0000
   2883 N(1)       27.9988    4.1200    9.7497 N.am      1 UNK         0.0000
   2884 C(1)       29.1061    3.2801    9.4956 C.ar      1 UNK         0.0000
   2885 C(2)       29.8290    3.2782    8.3028 C.ar      1 UNK         0.0000
   2886 C(3)       30.9066    2.4115    8.1462 C.ar      1 UNK         0.0000
   2887 C(4)       31.2770    1.5493    9.1751 C.ar      1 UNK         0.0000
   2888 C(5)       30.5736    1.5730   10.3788 C.ar      1 UNK         0.0000
   2889 C(6)       29.4958    2.4330   10.5337 C.ar      1 UNK         0.0000
   2890 C(7)       27.1915    4.7222    8.8614 C.2       1 UNK         0.0000
   2891 C(8)       26.0680    5.5237    9.4624 C.3       1 UNK         0.0000
   2892 H(1)       29.5505    3.9410    7.4929 H         1 UNK         0.0000
   2893 H(2)       31.4534    2.4222    7.2113 H         1 UNK         0.0000
   2894 H(3)       30.8666    0.9172   11.1894 H         1 UNK         0.0000
   2895 H(4)       28.9489    2.4494   11.4683 H         1 UNK         0.0000
   2896 H(5)       32.6460    0.3452    9.8016 H         1 UNK         0.0000
   2897 H(6)       27.7403    4.2150   10.7204 H         1 UNK         0.0000
   2898 H(7)       26.2865    6.5542    9.3531 H         1 UNK         0.0000
   2899 H(8)       25.9163    5.3165   10.4898 H         1 UNK         0.0000
   2900 H(9)       25.1875    5.3593    8.8976 H         1 UNK         0.0000
   2901 O(1)       22.1931   -3.8867   14.7654 O.3       1 UNK         0.0000
   2902 O(2)       27.1670    0.0578   16.0922 O.2       1 UNK         0.0000
   2903 N(1)       26.5159   -0.4665   13.9805 N.am      1 UNK         0.0000
   2904 C(1)       25.4086   -1.3064   14.2346 C.ar      1 UNK         0.0000
   2905 C(2)       24.6858   -1.3083   15.4274 C.ar      1 UNK         0.0000
   2906 C(3)       23.6081   -2.1750   15.5840 C.ar      1 UNK         0.0000
   2907 C(4)       23.2378   -3.0372   14.5551 C.ar      1 UNK         0.0000
   2908 C(5)       23.9411   -3.0135   13.3514 C.ar      1 UNK         0.0000
   2909 C(6)       25.0190   -2.1535   13.1965 C.ar      1 UNK         0.0000
   2910 C(7)       27.3233    0.1357   14.8687 C.2       1 UNK         0.0000
   2911 C(8)       28.4467    0.9372   14.2678 C.3       1 UNK         0.0000
   2912 H(1)       24.9642   -0.6455   16.2373 H         1 UNK         0.0000
   2913 H(2)       23.0613   -2.1643   16.5188 H         1 UNK         0.0000
   2914 H(3)       23.6482   -3.6693   12.5408 H         1 UNK         0.0000
   2915 H(4)       25.5659   -2.1371   12.2618 H         1 UNK         0.0000
   2916 H(5)       21.8687   -4.2413   13.9286 H         1 UNK         0.0000
   2917 H(6)       26.7744   -0.3715   13.0098 H         1 UNK         0.0000
   2918 H(7)       28.2283    1.9677   14.3771 H         1 UNK         0.0000
   2919 H(8)       28.5985    0.7300   13.2404 H         1 UNK         0.0000
   2920 H(9)       29.3272    0.7728   14.8326 H         1 UNK         0.0000
   2921 O(1)       26.5210    8.4732    4.2507 O.3       1 UNK         0.0000
   2922 O(2)       31.4949    4.5287    5.5774 O.2       1 UNK         0.0000
   2923 N(1)       30.8439    5.0530    3.4657 N.am      1 UNK         0.0000
   2924 C(1)       29.7366    5.8929    3.7198 C.ar      1 UNK         0.0000
   2925 C(2)       29.0137    5.8948    4.9126 C.ar      1 UNK         0.0000
   2926 C(3)       27.9361    6.7615    5.0693 C.ar      1 UNK         0.0000
   2927 C(4)       27.5657    7.6237    4.0404 C.ar      1 UNK         0.0000
   2928 C(5)       28.2691    7.6000    2.8367 C.ar      1 UNK         0.0000
   2929 C(6)       29.3469    6.7400    2.6817 C.ar      1 UNK         0.0000
   2930 C(7)       31.6512    4.4508    4.3540 C.2       1 UNK         0.0000
   2931 C(8)       32.7747    3.6493    3.7530 C.3       1 UNK         0.0000
   2932 H(1)       29.2922    5.2320    5.7226 H         1 UNK         0.0000
   2933 H(2)       27.3893    6.7508    6.0041 H         1 UNK         0.0000
   2934 H(3)       27.9761    8.2558    2.0261 H         1 UNK         0.0000
   2935 H(4)       29.8938    6.7236    1.7471 H         1 UNK         0.0000
   2936 H(5)       26.1967    8.8278    3.4139 H         1 UNK         0.0000
   2937 H(6)       31.1024    4.9580    2.4950 H         1 UNK         0.0000
   2938 H(7)       32.5562    2.6188    3.8623 H         1 UNK         0.0000
   2939 H(8)       32.9264    3.8565    2.7256 H         1 UNK         0.0000
   2940 H(9)       33.6552    3.8137    4.3178 H         1 UNK         0.0000
   2941 O(1)       26.0483    3.8867    5.4598 O.3       1 UNK         0.0000
   2942 O(2)       21.0744   -0.0578    4.1331 O.2       1 UNK         0.0000
   2943 N(1)       21.7255    0.4665    6.2448 N.am      1 UNK         0.0000
   2944 C(1)       22.8328    1.3064    5.9907 C.ar      1 UNK         0.0000
   2945 C(2)       23.5556    1.3083    4.7979 C.ar      1 UNK         0.0000
   2946 C(3)       24.6333    2.1750    4.6412 C.ar      1 UNK         0.0000
   2947 C(4)       25.0036    3.0372    5.6701 C.ar      1 UNK         0.0000
   2948 C(5)       24.3003    3.0135    6.8738 C.ar      1 UNK         0.0000
   2949 C(6)       23.2224    2.1535    7.0288 C.ar      1 UNK         0.0000
   2950 C(7)       20.9181   -0.1357    5.3565 C.2       1 UNK         0.0000
   2951 C(8)       19.7947   -0.9372    5.9575 C.3       1 UNK         0.0000
   2952 H(1)       23.2772    0.6455    3.9879 H         1 UNK         0.0000
   2953 H(2)       25.1801    2.1643    3.7064 H         1 UNK         0.0000
   2954 H(3)       24.5932    3.6693    7.6844 H         1 UNK         0.0000
   2955 H(4)       22.6755    2.1371    7.9634 H         1 UNK         0.0000
   2956 H(5)       26.3727    4.2413    6.2966 H         1 UNK         0.0000
   2957 H(6)       21.4670    0.3715    7.2155 H         1 UNK         0.0000
   2958 H(7)       20.0131   -1.9677    5.8482 H         1 UNK         0.0000
   2959 H(8)       19.6429   -0.7300    6.9849 H         1 UNK         0.0000
   2960 H(9)       18.9141   -0.7728    5.3927 H         1 UNK         0.0000
   2961 O(1)       33.2944    0.6998   15.9746 O.3       1 UNK         0.0000
   2962 O(2)       28.3205    4.6443   14.6478 O.2       1 UNK         0.0000
   2963 N(1)       28.9715    4.1200   16.7595 N.am      1 UNK         0.0000
   2964 C(1)       30.0788    3.2801   16.5055 C.ar      1 UNK         0.0000
   2965 C(2)       30.8017    3.2782   15.3126 C.ar      1 UNK         0.0000
   2966 C(3)       31.8793    2.4115   15.1560 C.ar      1 UNK         0.0000
   2967 C(4)       32.2496    1.5493   16.1849 C.ar      1 UNK         0.0000
   2968 C(5)       31.5463    1.5730   17.3886 C.ar      1 UNK         0.0000
   2969 C(6)       30.4685    2.4330   17.5435 C.ar      1 UNK         0.0000
   2970 C(7)       28.1642    4.7222   15.8713 C.2       1 UNK         0.0000
   2971 C(8)       27.0407    5.5237   16.4723 C.3       1 UNK         0.0000
   2972 H(1)       30.5232    3.9410   14.5027 H         1 UNK         0.0000
   2973 H(2)       32.4261    2.4222   14.2212 H         1 UNK         0.0000
   2974 H(3)       31.8392    0.9172   18.1992 H         1 UNK         0.0000
   2975 H(4)       29.9216    2.4494   18.4782 H         1 UNK         0.0000
   2976 H(5)       33.6187    0.3452   16.8114 H         1 UNK         0.0000
   2977 H(6)       28.7130    4.2150   17.7302 H         1 UNK         0.0000
   2978 H(7)       27.2592    6.5542   16.3629 H         1 UNK         0.0000
   2979 H(8)       26.8889    5.3165   17.4996 H         1 UNK         0.0000
   2980 H(9)       26.1602    5.3593   15.9074 H         1 UNK         0.0000
   2981 O(1)       34.7398   -3.8867   21.7753 O.3       1 UNK         0.0000
   2982 O(2)       39.7137    0.0578   23.1020 O.2       1 UNK         0.0000
   2983 N(1)       39.0626   -0.4665   20.9903 N.am      1 UNK         0.0000
   2984 C(1)       37.9553   -1.3064   21.2444 C.ar      1 UNK         0.0000
   2985 C(2)       37.2325   -1.3083   22.4372 C.ar      1 UNK         0.0000
   2986 C(3)       36.1548   -2.1750   22.5939 C.ar      1 UNK         0.0000
   2987 C(4)       35.7845   -3.0372   21.5650 C.ar      1 UNK         0.0000
   2988 C(5)       36.4878   -3.0135   20.3613 C.ar      1 UNK         0.0000
   2989 C(6)       37.5656   -2.1535   20.2063 C.ar      1 UNK         0.0000
   2990 C(7)       39.8700    0.1357   21.8786 C.2       1 UNK         0.0000
   2991 C(8)       40.9934    0.9372   21.2776 C.3       1 UNK         0.0000
   2992 H(1)       37.5109   -0.6455   23.2472 H         1 UNK         0.0000
   2993 H(2)       35.6080   -2.1643   23.5287 H         1 UNK         0.0000
   2994 H(3)       36.1949   -3.6693   19.5507 H         1 UNK         0.0000
   2995 H(4)       38.1126   -2.1371   19.2717 H         1 UNK         0.0000
   2996 H(5)       34.4154   -4.2413   20.9385 H         1 UNK         0.0000
   2997 H(6)       39.3211   -0.3715   20.0196 H         1 UNK         0.0000
   2998 H(7)       40.7750    1.9677   21.3869 H         1 UNK         0.0000
   2999 H(8)       41.1452    0.7300   20.2502 H         1 UNK         0.0000
   3000 H(9)       41.8739    0.7728   21.8424 H         1 UNK         0.0000
   3001 O(1)       27.4937    8.4732   11.2605 O.3       1 UNK         0.0000
   3002 O(2)       32.4676    4.5287   12.5873 O.2       1 UNK         0.0000
   3003 N(1)       31.8166    5.0530   10.4756 N.am      1 UNK         0.0000
   3004 C(1)       30.7092    5.8929   10.7296 C.ar      1 UNK         0.0000
   3005 C(2)       29.9864    5.8948   11.9225 C.ar      1 UNK         0.0000
   3006 C(3)       28.9087    6.7615   12.0791 C.ar      1 UNK         0.0000
   3007 C(4)       28.5384    7.6237   11.0502 C.ar      1 UNK         0.0000
   3008 C(5)       29.2418    7.6000    9.8465 C.ar      1 UNK         0.0000
   3009 C(6)       30.3196    6.7400    9.6916 C.ar      1 UNK         0.0000
   3010 C(7)       32.6239    4.4508   11.3638 C.2       1 UNK         0.0000
   3011 C(8)       33.7474    3.6493   10.7628 C.3       1 UNK         0.0000
   3012 H(1)       30.2649    5.2320   12.7324 H         1 UNK         0.0000
   3013 H(2)       28.3620    6.7508   13.0139 H         1 UNK         0.0000
   3014 H(3)       28.9488    8.2558    9.0359 H         1 UNK         0.0000
   3015 H(4)       30.8665    6.7236    8.7569 H         1 UNK         0.0000
   3016 H(5)       27.1694    8.8278   10.4237 H         1 UNK         0.0000
   3017 H(6)       32.0751    4.9580    9.5049 H         1 UNK         0.0000
   3018 H(7)       33.5289    2.6188   10.8722 H         1 UNK         0.0000
   3019 H(8)       33.8991    3.8565    9.7355 H         1 UNK         0.0000
   3020 H(9)       34.6279    3.8137   11.3277 H         1 UNK         0.0000
   3021 O(1)       38.5950    3.8867   12.4697 O.3       1 UNK         0.0000
   3022 O(2)       33.6211   -0.0578   11.1429 O.2       1 UNK         0.0000
   3023 N(1)       34.2722    0.4665   13.2546 N.am      1 UNK         0.0000
   3024 C(1)       35.3795    1.3064   13.0005 C.ar      1 UNK         0.0000
   3025 C(2)       36.1023    1.3083   11.8077 C.ar      1 UNK         0.0000
   3026 C(3)       37.1800    2.1750   11.6511 C.ar      1 UNK         0.0000
   3027 C(4)       37.5503    3.0372   12.6800 C.ar      1 UNK         0.0000
   3028 C(5)       36.8469    3.0135   13.8837 C.ar      1 UNK         0.0000
   3029 C(6)       35.7691    2.1535   14.0386 C.ar      1 UNK         0.0000
   3030 C(7)       33.4648   -0.1357   12.3664 C.2       1 UNK         0.0000
   3031 C(8)       32.3414   -0.9372   12.9673 C.3       1 UNK         0.0000
   3032 H(1)       35.8239    0.6455   10.9978 H         1 UNK         0.0000
   3033 H(2)       37.7268    2.1643   10.7162 H         1 UNK         0.0000
   3034 H(3)       37.1399    3.6693   14.6943 H         1 UNK         0.0000
   3035 H(4)       35.2222    2.1371   14.9733 H         1 UNK         0.0000
   3036 H(5)       38.9194    4.2413   13.3065 H         1 UNK         0.0000
   3037 H(6)       34.0137    0.3715   14.2253 H         1 UNK         0.0000
   3038 H(7)       32.5598   -1.9677   12.8580 H         1 UNK         0.0000
   3039 H(8)       32.1896   -0.7300   13.9947 H         1 UNK         0.0000
   3040 H(9)       31.4608   -0.7728   12.4025 H         1 UNK         0.0000
   3041 O(1)       34.2671    0.6998    1.7534 O.3       1 UNK         0.0000
   3042 O(2)       29.2932    4.6443    0.4267 O.2       1 UNK         0.0000
   3043 N(1)       29.9442    4.1200    2.5384 N.am      1 UNK         0.0000
   3044 C(1)       31.0515    3.2801    2.2843 C.ar      1 UNK         0.0000
   3045 C(2)       31.7744    3.2782    1.0915 C.ar      1 UNK         0.0000
   3046 C(3)       32.8520    2.4115    0.9348 C.ar      1 UNK         0.0000
   3047 C(4)       33.2223    1.5493    1.9637 C.ar      1 UNK         0.0000
   3048 C(5)       32.5190    1.5730    3.1674 C.ar      1 UNK         0.0000
   3049 C(6)       31.4412    2.4330    3.3223 C.ar      1 UNK         0.0000
   3050 C(7)       29.1369    4.7222    1.6501 C.2       1 UNK         0.0000
   3051 C(8)       28.0134    5.5237    2.2511 C.3       1 UNK         0.0000
   3052 H(1)       31.4959    3.9410    0.2815 H         1 UNK         0.0000
   3053 H(2)       33.3988    2.4222    0.0000 H         1 UNK         0.0000
   3054 H(3)       32.8119    0.9172    3.9780 H         1 UNK         0.0000
   3055 H(4)       30.8943    2.4494    4.2570 H         1 UNK         0.0000
   3056 H(5)       34.5914    0.3452    2.5902 H         1 UNK         0.0000
   3057 H(6)       29.6857    4.2150    3.5091 H         1 UNK         0.0000
   3058 H(7)       28.2319    6.5542    2.1418 H         1 UNK         0.0000
   3059 H(8)       27.8616    5.3165    3.2785 H         1 UNK         0.0000
   3060 H(9)       27.1329    5.3593    1.6863 H         1 UNK         0.0000
   3061 O(1)       21.2204   -3.8867    7.7556 O.3       1 UNK         0.0000
   3062 O(2)       26.1943    0.0578    9.0824 O.2       1 UNK         0.0000
   3063 N(1)       25.5432   -0.4665    6.9707 N.am      1 UNK         0.0000
   3064 C(1)       24.4359   -1.3064    7.2247 C.ar      1 UNK         0.0000
   3065 C(2)       23.7131   -1.3083    8.4175 C.ar      1 UNK         0.0000
   3066 C(3)       22.6354   -2.1750    8.5742 C.ar      1 UNK         0.0000
   3067 C(4)       22.2651   -3.0372    7.5453 C.ar      1 UNK         0.0000
   3068 C(5)       22.9684   -3.0135    6.3416 C.ar      1 UNK         0.0000
   3069 C(6)       24.0463   -2.1535    6.1867 C.ar      1 UNK         0.0000
   3070 C(7)       26.3506    0.1357    7.8589 C.2       1 UNK         0.0000
   3071 C(8)       27.4740    0.9372    7.2579 C.3       1 UNK         0.0000
   3072 H(1)       23.9915   -0.6455    9.2275 H         1 UNK         0.0000
   3073 H(2)       22.0886   -2.1643    9.5090 H         1 UNK         0.0000
   3074 H(3)       22.6755   -3.6693    5.5310 H         1 UNK         0.0000
   3075 H(4)       24.5932   -2.1371    5.2520 H         1 UNK         0.0000
   3076 H(5)       20.8960   -4.2413    6.9188 H         1 UNK         0.0000
   3077 H(6)       25.8017   -0.3715    5.9999 H         1 UNK         0.0000
   3078 H(7)       27.2556    1.9677    7.3672 H         1 UNK         0.0000
   3079 H(8)       27.6258    0.7300    6.2305 H         1 UNK         0.0000
   3080 H(9)       28.3546    0.7728    7.8227 H         1 UNK         0.0000
   3081 O(1)       28.4664   -0.6998   18.2703 O.3       1 UNK         0.0000
   3082 O(2)       33.4403   -4.6443   19.5971 O.2       1 UNK         0.0000
   3083 N(1)       32.7893   -4.1200   17.4854 N.am      1 UNK         0.0000
   3084 C(1)       31.6819   -3.2801   17.7395 C.ar      1 UNK         0.0000
   3085 C(2)       30.9591   -3.2782   18.9323 C.ar      1 UNK         0.0000
   3086 C(3)       29.8814   -2.4115   19.0889 C.ar      1 UNK         0.0000
   3087 C(4)       29.5111   -1.5493   18.0600 C.ar      1 UNK         0.0000
   3088 C(5)       30.2145   -1.5730   16.8563 C.ar      1 UNK         0.0000
   3089 C(6)       31.2923   -2.4330   16.7014 C.ar      1 UNK         0.0000
   3090 C(7)       33.5966   -4.7222   18.3737 C.2       1 UNK         0.0000
   3091 C(8)       34.7201   -5.5237   17.7727 C.3       1 UNK         0.0000
   3092 H(1)       31.2376   -3.9410   19.7422 H         1 UNK         0.0000
   3093 H(2)       29.3347   -2.4222   20.0238 H         1 UNK         0.0000
   3094 H(3)       29.9215   -0.9172   16.0457 H         1 UNK         0.0000
   3095 H(4)       31.8392   -2.4494   15.7668 H         1 UNK         0.0000
   3096 H(5)       28.1421   -0.3452   17.4335 H         1 UNK         0.0000
   3097 H(6)       33.0478   -4.2150   16.5147 H         1 UNK         0.0000
   3098 H(7)       34.5016   -6.5542   17.8820 H         1 UNK         0.0000
   3099 H(8)       34.8718   -5.3165   16.7453 H         1 UNK         0.0000
   3100 H(9)       35.6006   -5.3593   18.3375 H         1 UNK         0.0000
   3101 O(1)       27.9937    3.8867   19.4795 O.3       1 UNK         0.0000
   3102 O(2)       23.0198   -0.0578   18.1527 O.2       1 UNK         0.0000
   3103 N(1)       23.6709    0.4665   20.2644 N.am      1 UNK         0.0000
   3104 C(1)       24.7782    1.3064   20.0104 C.ar      1 UNK         0.0000
   3105 C(2)       25.5010    1.3083   18.8176 C.ar      1 UNK         0.0000
   3106 C(3)       26.5787    2.1750   18.6609 C.ar      1 UNK         0.0000
   3107 C(4)       26.9490    3.0372   19.6898 C.ar      1 UNK         0.0000
   3108 C(5)       26.2456    3.0135   20.8935 C.ar      1 UNK         0.0000
   3109 C(6)       25.1678    2.1535   21.0484 C.ar      1 UNK         0.0000
   3110 C(7)       22.8635   -0.1357   19.3762 C.2       1 UNK         0.0000
   3111 C(8)       21.7401   -0.9372   19.9772 C.3       1 UNK         0.0000
   3112 H(1)       25.2226    0.6455   18.0076 H         1 UNK         0.0000
   3113 H(2)       27.1254    2.1643   17.7261 H         1 UNK         0.0000
   3114 H(3)       26.5386    3.6693   21.7041 H         1 UNK         0.0000
   3115 H(4)       24.6209    2.1371   21.9831 H         1 UNK         0.0000
   3116 H(5)       28.3181    4.2413   20.3163 H         1 UNK         0.0000
   3117 H(6)       23.4124    0.3715   21.2352 H         1 UNK         0.0000
   3118 H(7)       21.9585   -1.9677   19.8678 H         1 UNK         0.0000
   3119 H(8)       21.5883   -0.7300   21.0046 H         1 UNK         0.0000
   3120 H(9)       20.8595   -0.7728   19.4124 H         1 UNK         0.0000
   3121 O(1)       32.3217    9.8728    8.9648 O.3       1 UNK         0.0000
   3122 O(2)       27.3478   13.8173    7.6380 O.2       1 UNK         0.0000
   3123 N(1)       27.9988   13.2930    9.7497 N.am      1 UNK         0.0000
   3124 C(1)       29.1061   12.4531    9.4956 C.ar      1 UNK         0.0000
   3125 C(2)       29.8290   12.4512    8.3028 C.ar      1 UNK         0.0000
   3126 C(3)       30.9066   11.5845    8.1462 C.ar      1 UNK         0.0000
   3127 C(4)       31.2770   10.7223    9.1751 C.ar      1 UNK         0.0000
   3128 C(5)       30.5736   10.7460   10.3788 C.ar      1 UNK         0.0000
   3129 C(6)       29.4958   11.6060   10.5337 C.ar      1 UNK         0.0000
   3130 C(7)       27.1915   13.8952    8.8614 C.2       1 UNK         0.0000
   3131 C(8)       26.0680   14.6967    9.4624 C.3       1 UNK         0.0000
   3132 H(1)       29.5505   13.1140    7.4929 H         1 UNK         0.0000
   3133 H(2)       31.4534   11.5952    7.2113 H         1 UNK         0.0000
   3134 H(3)       30.8666   10.0902   11.1894 H         1 UNK         0.0000
   3135 H(4)       28.9489   11.6224   11.4683 H         1 UNK         0.0000
   3136 H(5)       32.6460    9.5182    9.8016 H         1 UNK         0.0000
   3137 H(6)       27.7403   13.3880   10.7204 H         1 UNK         0.0000
   3138 H(7)       26.2865   15.7272    9.3531 H         1 UNK         0.0000
   3139 H(8)       25.9163   14.4895   10.4898 H         1 UNK         0.0000
   3140 H(9)       25.1875   14.5323    8.8976 H         1 UNK         0.0000
   3141 O(1)       22.1931    5.2863   14.7654 O.3       1 UNK         0.0000
   3142 O(2)       27.1670    9.2308   16.0922 O.2       1 UNK         0.0000
   3143 N(1)       26.5159    8.7065   13.9805 N.am      1 UNK         0.0000
   3144 C(1)       25.4086    7.8666   14.2346 C.ar      1 UNK         0.0000
   3145 C(2)       24.6858    7.8647   15.4274 C.ar      1 UNK         0.0000
   3146 C(3)       23.6081    6.9980   15.5840 C.ar      1 UNK         0.0000
   3147 C(4)       23.2378    6.1358   14.5551 C.ar      1 UNK         0.0000
   3148 C(5)       23.9411    6.1595   13.3514 C.ar      1 UNK         0.0000
   3149 C(6)       25.0190    7.0195   13.1965 C.ar      1 UNK         0.0000
   3150 C(7)       27.3233    9.3087   14.8687 C.2       1 UNK         0.0000
   3151 C(8)       28.4467   10.1102   14.2678 C.3       1 UNK         0.0000
   3152 H(1)       24.9642    8.5275   16.2373 H         1 UNK         0.0000
   3153 H(2)       23.0613    7.0087   16.5188 H         1 UNK         0.0000
   3154 H(3)       23.6482    5.5037   12.5408 H         1 UNK         0.0000
   3155 H(4)       25.5659    7.0359   12.2618 H         1 UNK         0.0000
   3156 H(5)       21.8687    4.9317   13.9286 H         1 UNK         0.0000
   3157 H(6)       26.7744    8.8015   13.0098 H         1 UNK         0.0000
   3158 H(7)       28.2283   11.1407   14.3771 H         1 UNK         0.0000
   3159 H(8)       28.5985    9.9030   13.2404 H         1 UNK         0.0000
   3160 H(9)       29.3272    9.9458   14.8326 H         1 UNK         0.0000
   3161 O(1)       26.5210   17.6462    4.2507 O.3       1 UNK         0.0000
   3162 O(2)       31.4949   13.7017    5.5774 O.2       1 UNK         0.0000
   3163 N(1)       30.8439   14.2260    3.4657 N.am      1 UNK         0.0000
   3164 C(1)       29.7366   15.0659    3.7198 C.ar      1 UNK         0.0000
   3165 C(2)       29.0137   15.0678    4.9126 C.ar      1 UNK         0.0000
   3166 C(3)       27.9361   15.9345    5.0693 C.ar      1 UNK         0.0000
   3167 C(4)       27.5657   16.7967    4.0404 C.ar      1 UNK         0.0000
   3168 C(5)       28.2691   16.7730    2.8367 C.ar      1 UNK         0.0000
   3169 C(6)       29.3469   15.9130    2.6817 C.ar      1 UNK         0.0000
   3170 C(7)       31.6512   13.6238    4.3540 C.2       1 UNK         0.0000
   3171 C(8)       32.7747   12.8223    3.7530 C.3       1 UNK         0.0000
   3172 H(1)       29.2922   14.4050    5.7226 H         1 UNK         0.0000
   3173 H(2)       27.3893   15.9238    6.0041 H         1 UNK         0.0000
   3174 H(3)       27.9761   17.4288    2.0261 H         1 UNK         0.0000
   3175 H(4)       29.8938   15.8966    1.7471 H         1 UNK         0.0000
   3176 H(5)       26.1967   18.0008    3.4139 H         1 UNK         0.0000
   3177 H(6)       31.1024   14.1310    2.4950 H         1 UNK         0.0000
   3178 H(7)       32.5562   11.7918    3.8623 H         1 UNK         0.0000
   3179 H(8)       32.9264   13.0295    2.7256 H         1 UNK         0.0000
   3180 H(9)       33.6552   12.9867    4.3178 H         1 UNK         0.0000
   3181 O(1)       26.0483   13.0597    5.4598 O.3       1 UNK         0.0000
   3182 O(2)       21.0744    9.1152    4.1331 O.2       1 UNK         0.0000
   3183 N(1)       21.7255    9.6395    6.2448 N.am      1 UNK         0.0000
   3184 C(1)       22.8328   10.4794    5.9907 C.ar      1 UNK         0.0000
   3185 C(2)       23.5556   10.4813    4.7979 C.ar      1 UNK         0.0000
   3186 C(3)       24.6333   11.3480    4.6412 C.ar      1 UNK         0.0000
   3187 C(4)       25.0036   12.2102    5.6701 C.ar      1 UNK         0.0000
   3188 C(5)       24.3003   12.1865    6.8738 C.ar      1 UNK         0.0000
   3189 C(6)       23.2224   11.3265    7.0288 C.ar      1 UNK         0.0000
   3190 C(7)       20.9181    9.0373    5.3565 C.2       1 UNK         0.0000
   3191 C(8)       19.7947    8.2358    5.9575 C.3       1 UNK         0.0000
   3192 H(1)       23.2772    9.8185    3.9879 H         1 UNK         0.0000
   3193 H(2)       25.1801   11.3373    3.7064 H         1 UNK         0.0000
   3194 H(3)       24.5932   12.8423    7.6844 H         1 UNK         0.0000
   3195 H(4)       22.6755   11.3101    7.9634 H         1 UNK         0.0000
   3196 H(5)       26.3727   13.4143    6.2966 H         1 UNK         0.0000
   3197 H(6)       21.4670    9.5445    7.2155 H         1 UNK         0.0000
   3198 H(7)       20.0131    7.2053    5.8482 H         1 UNK         0.0000
   3199 H(8)       19.6429    8.4430    6.9849 H         1 UNK         0.0000
   3200 H(9)       18.9141    8.4002    5.3927 H         1 UNK         0.0000
   3201 O(1)       33.2944    9.8728   15.9746 O.3       1 UNK         0.0000
   3202 O(2)       28.3205   13.8173   14.6478 O.2       1 UNK         0.0000
   3203 N(1)       28.9715   13.2930   16.7595 N.am      1 UNK         0.0000
   3204 C(1)       30.0788   12.4531   16.5055 C.ar      1 UNK         0.0000
   3205 C(2)       30.8017   12.4512   15.3126 C.ar      1 UNK         0.0000
   3206 C(3)       31.8793   11.5845   15.1560 C.ar      1 UNK         0.0000
   3207 C(4)       32.2496   10.7223   16.1849 C.ar      1 UNK         0.0000
   3208 C(5)       31.5463   10.7460   17.3886 C.ar      1 UNK         0.0000
   3209 C(6)       30.4685   11.6060   17.5435 C.ar      1 UNK         0.0000
   3210 C(7)       28.1642   13.8952   15.8713 C.2       1 UNK         0.0000
   3211 C(8)       27.0407   14.6967   16.4723 C.3       1 UNK         0.0000
   3212 H(1)       30.5232   13.1140   14.5027 H         1 UNK         0.0000
   3213 H(2)       32.4261   11.5952   14.2212 H         1 UNK         0.0000
   3214 H(3)       31.8392   10.0902   18.1992 H         1 UNK         0.0000
   3215 H(4)       29.9216   11.6224   18.4782 H         1 UNK         0.0000
   3216 H(5)       33.6187    9.5182   16.8114 H         1 UNK         0.0000
   3217 H(6)       28.7130   13.3880   17.7302 H         1 UNK         0.0000
   3218 H(7)       27.2592   15.7272   16.3629 H         1 UNK         0.0000
   3219 H(8)       26.8889   14.4895   17.4996 H         1 UNK         0.0000
   3220 H(9)       26.1602   14.5323   15.9074 H         1 UNK         0.0000
   3221 O(1)       34.7398    5.2863   21.7753 O.3       1 UNK         0.0000
   3222 O(2)       39.7137    9.2308   23.1020 O.2       1 UNK         0.0000
   3223 N(1)       39.0626    8.7065   20.9903 N.am      1 UNK         0.0000
   3224 C(1)       37.9553    7.8666   21.2444 C.ar      1 UNK         0.0000
   3225 C(2)       37.2325    7.8647   22.4372 C.ar      1 UNK         0.0000
   3226 C(3)       36.1548    6.9980   22.5939 C.ar      1 UNK         0.0000
   3227 C(4)       35.7845    6.1358   21.5650 C.ar      1 UNK         0.0000
   3228 C(5)       36.4878    6.1595   20.3613 C.ar      1 UNK         0.0000
   3229 C(6)       37.5656    7.0195   20.2063 C.ar      1 UNK         0.0000
   3230 C(7)       39.8700    9.3087   21.8786 C.2       1 UNK         0.0000
   3231 C(8)       40.9934   10.1102   21.2776 C.3       1 UNK         0.0000
   3232 H(1)       37.5109    8.5275   23.2472 H         1 UNK         0.0000
   3233 H(2)       35.6080    7.0087   23.5287 H         1 UNK         0.0000
   3234 H(3)       36.1949    5.5037   19.5507 H         1 UNK         0.0000
   3235 H(4)       38.1126    7.0359   19.2717 H         1 UNK         0.0000
   3236 H(5)       34.4154    4.9317   20.9385 H         1 UNK         0.0000
   3237 H(6)       39.3211    8.8015   20.0196 H         1 UNK         0.0000
   3238 H(7)       40.7750   11.1407   21.3869 H         1 UNK         0.0000
   3239 H(8)       41.1452    9.9030   20.2502 H         1 UNK         0.0000
   3240 H(9)       41.8739    9.9458   21.8424 H         1 UNK         0.0000
   3241 O(1)       27.4937   17.6462   11.2605 O.3       1 UNK         0.0000
   3242 O(2)       32.4676   13.7017   12.5873 O.2       1 UNK         0.0000
   3243 N(1)       31.8166   14.2260   10.4756 N.am      1 UNK         0.0000
   3244 C(1)       30.7092   15.0659   10.7296 C.ar      1 UNK         0.0000
   3245 C(2)       29.9864   15.0678   11.9225 C.ar      1 UNK         0.0000
   3246 C(3)       28.9087   15.9345   12.0791 C.ar      1 UNK         0.0000
   3247 C(4)       28.5384   16.7967   11.0502 C.ar      1 UNK         0.0000
   3248 C(5)       29.2418   16.7730    9.8465 C.ar      1 UNK         0.0000
   3249 C(6)       30.3196   15.9130    9.6916 C.ar      1 UNK         0.0000
   3250 C(7)       32.6239   13.6238   11.3638 C.2       1 UNK         0.0000
   3251 C(8)       33.7474   12.8223   10.7628 C.3       1 UNK         0.0000
   3252 H(1)       30.2649   14.4050   12.7324 H         1 UNK         0.0000
   3253 H(2)       28.3620   15.9238   13.0139 H         1 UNK         0.0000
   3254 H(3)       28.9488   17.4288    9.0359 H         1 UNK         0.0000
   3255 H(4)       30.8665   15.8966    8.7569 H         1 UNK         0.0000
   3256 H(5)       27.1694   18.0008   10.4237 H         1 UNK         0.0000
   3257 H(6)       32.0751   14.1310    9.5049 H         1 UNK         0.0000
   3258 H(7)       33.5289   11.7918   10.8722 H         1 UNK         0.0000
   3259 H(8)       33.8991   13.0295    9.7355 H         1 UNK         0.0000
   3260 H(9)       34.6279   12.9867   11.3277 H         1 UNK         0.0000
   3261 O(1)       38.5950   13.0597   12.4697 O.3       1 UNK         0.0000
   3262 O(2)       33.6211    9.1152   11.1429 O.2       1 UNK         0.0000
   3263 N(1)       34.2722    9.6395   13.2546 N.am      1 UNK         0.0000
   3264 C(1)       35.3795   10.4794   13.0005 C.ar      1 UNK         0.0000
   3265 C(2)       36.1023   10.4813   11.8077 C.ar      1 UNK         0.0000
   3266 C(3)       37.1800   11.3480   11.6511 C.ar      1 UNK         0.0000
   3267 C(4)       37.5503   12.2102   12.6800 C.ar      1 UNK         0.0000
   3268 C(5)       36.8469   12.1865   13.8837 C.ar      1 UNK         0.0000
   3269 C(6)       35.7691   11.3265   14.0386 C.ar      1 UNK         0.0000
   3270 C(7)       33.4648    9.0373   12.3664 C.2       1 UNK         0.0000
   3271 C(8)       32.3414    8.2358   12.9673 C.3       1 UNK         0.0000
   3272 H(1)       35.8239    9.8185   10.9978 H         1 UNK         0.0000
   3273 H(2)       37.7268   11.3373   10.7162 H         1 UNK         0.0000
   3274 H(3)       37.1399   12.8423   14.6943 H         1 UNK         0.0000
   3275 H(4)       35.2222   11.3101   14.9733 H         1 UNK         0.0000
   3276 H(5)       38.9194   13.4143   13.3065 H         1 UNK         0.0000
   3277 H(6)       34.0137    9.5445   14.2253 H         1 UNK         0.0000
   3278 H(7)       32.5598    7.2053   12.8580 H         1 UNK         0.0000
   3279 H(8)       32.1896    8.4430   13.9947 H         1 UNK         0.0000
   3280 H(9)       31.4608    8.4002   12.4025 H         1 UNK         0.0000
   3281 O(1)       34.2671    9.8728    1.7534 O.3       1 UNK         0.0000
   3282 O(2)       29.2932   13.8173    0.4267 O.2       1 UNK         0.0000
   3283 N(1)       29.9442   13.2930    2.5384 N.am      1 UNK         0.0000
   3284 C(1)       31.0515   12.4531    2.2843 C.ar      1 UNK         0.0000
   3285 C(2)       31.7744   12.4512    1.0915 C.ar      1 UNK         0.0000
   3286 C(3)       32.8520   11.5845    0.9348 C.ar      1 UNK         0.0000
   3287 C(4)       33.2223   10.7223    1.9637 C.ar      1 UNK         0.0000
   3288 C(5)       32.5190   10.7460    3.1674 C.ar      1 UNK         0.0000
   3289 C(6)       31.4412   11.6060    3.3223 C.ar      1 UNK         0.0000
   3290 C(7)       29.1369   13.8952    1.6501 C.2       1 UNK         0.0000
   3291 C(8)       28.0134   14.6967    2.2511 C.3       1 UNK         0.0000
   3292 H(1)       31.4959   13.1140    0.2815 H         1 UNK         0.0000
   3293 H(2)       33.3988   11.5952    0.0000 H         1 UNK         0.0000
   3294 H(3)       32.8119   10.0902    3.9780 H         1 UNK         0.0000
   3295 H(4)       30.8943   11.6224    4.2570 H         1 UNK         0.0000
   3296 H(5)       34.5914    9.5182    2.5902 H         1 UNK         0.0000
   3297 H(6)       29.6857   13.3880    3.5091 H         1 UNK         0.0000
   3298 H(7)       28.2319   15.7272    2.1418 H         1 UNK         0.0000
   3299 H(8)       27.8616   14.4895    3.2785 H         1 UNK         0.0000
   3300 H(9)       27.1329   14.5323    1.6863 H         1 UNK         0.0000
   3301 O(1)       21.2204    5.2863    7.7556 O.3       1 UNK         0.0000
   3302 O(2)       26.1943    9.2308    9.0824 O.2       1 UNK         0.0000
   3303 N(1)       25.5432    8.7065    6.9707 N.am      1 UNK         0.0000
   3304 C(1)       24.4359    7.8666    7.2247 C.ar      1 UNK         0.0000
   3305 C(2)       23.7131    7.8647    8.4175 C.ar      1 UNK         0.0000
   3306 C(3)       22.6354    6.9980    8.5742 C.ar      1 UNK         0.0000
   3307 C(4)       22.2651    6.1358    7.5453 C.ar      1 UNK         0.0000
   3308 C(5)       22.9684    6.1595    6.3416 C.ar      1 UNK         0.0000
   3309 C(6)       24.0463    7.0195    6.1867 C.ar      1 UNK         0.0000
   3310 C(7)       26.3506    9.3087    7.8589 C.2       1 UNK         0.0000
   3311 C(8)       27.4740   10.1102    7.2579 C.3       1 UNK         0.0000
   3312 H(1)       23.9915    8.5275    9.2275 H         1 UNK         0.0000
   3313 H(2)       22.0886    7.0087    9.5090 H         1 UNK         0.0000
   3314 H(3)       22.6755    5.5037    5.5310 H         1 UNK         0.0000
   3315 H(4)       24.5932    7.0359    5.2520 H         1 UNK         0.0000
   3316 H(5)       20.8960    4.9317    6.9188 H         1 UNK         0.0000
   3317 H(6)       25.8017    8.8015    5.9999 H         1 UNK         0.0000
   3318 H(7)       27.2556   11.1407    7.3672 H         1 UNK         0.0000
   3319 H(8)       27.6258    9.9030    6.2305 H         1 UNK         0.0000
   3320 H(9)       28.3546    9.9458    7.8227 H         1 UNK         0.0000
   3321 O(1)       28.4664    8.4732   18.2703 O.3       1 UNK         0.0000
   3322 O(2)       33.4403    4.5287   19.5971 O.2       1 UNK         0.0000
   3323 N(1)       32.7893    5.0530   17.4854 N.am      1 UNK         0.0000
   3324 C(1)       31.6819    5.8929   17.7395 C.ar      1 UNK         0.0000
   3325 C(2)       30.9591    5.8948   18.9323 C.ar      1 UNK         0.0000
   3326 C(3)       29.8814    6.7615   19.0889 C.ar      1 UNK         0.0000
   3327 C(4)       29.5111    7.6237   18.0600 C.ar      1 UNK         0.0000
   3328 C(5)       30.2145    7.6000   16.8563 C.ar      1 UNK         0.0000
   3329 C(6)       31.2923    6.7400   16.7014 C.ar      1 UNK         0.0000
   3330 C(7)       33.5966    4.4508   18.3737 C.2       1 UNK         0.0000
   3331 C(8)       34.7201    3.6493   17.7727 C.3       1 UNK         0.0000
   3332 H(1)       31.2376    5.2320   19.7422 H         1 UNK         0.0000
   3333 H(2)       29.3347    6.7508   20.0238 H         1 UNK         0.0000
   3334 H(3)       29.9215    8.2558   16.0457 H         1 UNK         0.0000
   3335 H(4)       31.8392    6.7236   15.7668 H         1 UNK         0.0000
   3336 H(5)       28.1421    8.8278   17.4335 H         1 UNK         0.0000
   3337 H(6)       33.0478    4.9580   16.5147 H         1 UNK         0.0000
   3338 H(7)       34.5016    2.6188   17.8820 H         1 UNK         0.0000
   3339 H(8)       34.8718    3.8565   16.7453 H         1 UNK         0.0000
   3340 H(9)       35.6006    3.8137   18.3375 H         1 UNK         0.0000
   3341 O(1)       27.9937   13.0597   19.4795 O.3       1 UNK         0.0000
   3342 O(2)       23.0198    9.1152   18.1527 O.2       1 UNK         0.0000
   3343 N(1)       23.6709    9.6395   20.2644 N.am      1 UNK         0.0000
   3344 C(1)       24.7782   10.4794   20.0104 C.ar      1 UNK         0.0000
   3345 C(2)       25.5010   10.4813   18.8176 C.ar      1 UNK         0.0000
   3346 C(3)       26.5787   11.3480   18.6609 C.ar      1 UNK         0.0000
   3347 C(4)       26.9490   12.2102   19.6898 C.ar      1 UNK         0.0000
   3348 C(5)       26.2456   12.1865   20.8935 C.ar      1 UNK         0.0000
   3349 C(6)       25.1678   11.3265   21.0484 C.ar      1 UNK         0.0000
   3350 C(7)       22.8635    9.0373   19.3762 C.2       1 UNK         0.0000
   3351 C(8)       21.7401    8.2358   19.9772 C.3       1 UNK         0.0000
   3352 H(1)       25.2226    9.8185   18.0076 H         1 UNK         0.0000
   3353 H(2)       27.1254   11.3373   17.7261 H         1 UNK         0.0000
   3354 H(3)       26.5386   12.8423   21.7041 H         1 UNK         0.0000
   3355 H(4)       24.6209   11.3101   21.9831 H         1 UNK         0.0000
   3356 H(5)       28.3181   13.4143   20.3163 H         1 UNK         0.0000
   3357 H(6)       23.4124    9.5445   21.2352 H         1 UNK         0.0000
   3358 H(7)       21.9585    7.2053   19.8678 H         1 UNK         0.0000
   3359 H(8)       21.5883    8.4430   21.0046 H         1 UNK         0.0000
   3360 H(9)       20.8595    8.4002   19.4124 H         1 UNK         0.0000
   3361 O(1)       32.3217   19.0458    8.9648 O.3       1 UNK         0.0000
   3362 O(2)       27.3478   22.9903    7.6380 O.2       1 UNK         0.0000
   3363 N(1)       27.9988   22.4660    9.7497 N.am      1 UNK         0.0000
   3364 C(1)       29.1061   21.6261    9.4956 C.ar      1 UNK         0.0000
   3365 C(2)       29.8290   21.6242    8.3028 C.ar      1 UNK         0.0000
   3366 C(3)       30.9066   20.7575    8.1462 C.ar      1 UNK         0.0000
   3367 C(4)       31.2770   19.8953    9.1751 C.ar      1 UNK         0.0000
   3368 C(5)       30.5736   19.9190   10.3788 C.ar      1 UNK         0.0000
   3369 C(6)       29.4958   20.7790   10.5337 C.ar      1 UNK         0.0000
   3370 C(7)       27.1915   23.0682    8.8614 C.2       1 UNK         0.0000
   3371 C(8)       26.0680   23.8697    9.4624 C.3       1 UNK         0.0000
   3372 H(1)       29.5505   22.2870    7.4929 H         1 UNK         0.0000
   3373 H(2)       31.4534   20.7682    7.2113 H         1 UNK         0.0000
   3374 H(3)       30.8666   19.2632   11.1894 H         1 UNK         0.0000
   3375 H(4)       28.9489   20.7954   11.4683 H         1 UNK         0.0000
   3376 H(5)       32.6460   18.6912    9.8016 H         1 UNK         0.0000
   3377 H(6)       27.7403   22.5611   10.7204 H         1 UNK         0.0000
   3378 H(7)       26.2865   24.9002    9.3531 H         1 UNK         0.0000
   3379 H(8)       25.9163   23.6625   10.4898 H         1 UNK         0.0000
   3380 H(9)       25.1875   23.7053    8.8976 H         1 UNK         0.0000
   3381 O(1)       22.1931   14.4593   14.7654 O.3       1 UNK         0.0000
   3382 O(2)       27.1670   18.4038   16.0922 O.2       1 UNK         0.0000
   3383 N(1)       26.5159   17.8795   13.9805 N.am      1 UNK         0.0000
   3384 C(1)       25.4086   17.0396   14.2346 C.ar      1 UNK         0.0000
   3385 C(2)       24.6858   17.0377   15.4274 C.ar      1 UNK         0.0000
   3386 C(3)       23.6081   16.1710   15.5840 C.ar      1 UNK         0.0000
   3387 C(4)       23.2378   15.3088   14.5551 C.ar      1 UNK         0.0000
   3388 C(5)       23.9411   15.3325   13.3514 C.ar      1 UNK         0.0000
   3389 C(6)       25.0190   16.1925   13.1965 C.ar      1 UNK         0.0000
   3390 C(7)       27.3233   18.4817   14.8687 C.2       1 UNK         0.0000
   3391 C(8)       28.4467   19.2832   14.2678 C.3       1 UNK         0.0000
   3392 H(1)       24.9642   17.7005   16.2373 H         1 UNK         0.0000
   3393 H(2)       23.0613   16.1817   16.5188 H         1 UNK         0.0000
   3394 H(3)       23.6482   14.6767   12.5408 H         1 UNK         0.0000
   3395 H(4)       25.5659   16.2089   12.2618 H         1 UNK         0.0000
   3396 H(5)       21.8687   14.1047   13.9286 H         1 UNK         0.0000
   3397 H(6)       26.7744   17.9746   13.0098 H         1 UNK         0.0000
   3398 H(7)       28.2283   20.3137   14.3771 H         1 UNK         0.0000
   3399 H(8)       28.5985   19.0760   13.2404 H         1 UNK         0.0000
   3400 H(9)       29.3272   19.1188   14.8326 H         1 UNK         0.0000
   3401 O(1)       26.5210   26.8192    4.2507 O.3       1 UNK         0.0000
   3402 O(2)       31.4949   22.8747    5.5774 O.2       1 UNK         0.0000
   3403 N(1)       30.8439   23.3990    3.4657 N.am      1 UNK         0.0000
   3404 C(1)       29.7366   24.2389    3.7198 C.ar      1 UNK         0.0000
   3405 C(2)       29.0137   24.2408    4.9126 C.ar      1 UNK         0.0000
   3406 C(3)       27.9361   25.1075    5.0693 C.ar      1 UNK         0.0000
   3407 C(4)       27.5657   25.9697    4.0404 C.ar      1 UNK         0.0000
   3408 C(5)       28.2691   25.9460    2.8367 C.ar      1 UNK         0.0000
   3409 C(6)       29.3469   25.0860    2.6817 C.ar      1 UNK         0.0000
   3410 C(7)       31.6512   22.7968    4.3540 C.2       1 UNK         0.0000
   3411 C(8)       32.7747   21.9953    3.7530 C.3       1 UNK         0.0000
   3412 H(1)       29.2922   23.5780    5.7226 H         1 UNK         0.0000
   3413 H(2)       27.3893   25.0968    6.0041 H         1 UNK         0.0000
   3414 H(3)       27.9761   26.6018    2.0261 H         1 UNK         0.0000
   3415 H(4)       29.8938   25.0696    1.7471 H         1 UNK         0.0000
   3416 H(5)       26.1967   27.1738    3.4139 H         1 UNK         0.0000
   3417 H(6)       31.1024   23.3040    2.4950 H         1 UNK         0.0000
   3418 H(7)       32.5562   20.9648    3.8623 H         1 UNK         0.0000
   3419 H(8)       32.9264   22.2025    2.7256 H         1 UNK         0.0000
   3420 H(9)       33.6552   22.1597    4.3178 H         1 UNK         0.0000
   3421 O(1)       26.0483   22.2327    5.4598 O.3       1 UNK         0.0000
   3422 O(2)       21.0744   18.2882    4.1331 O.2       1 UNK         0.0000
   3423 N(1)       21.7255   18.8125    6.2448 N.am      1 UNK         0.0000
   3424 C(1)       22.8328   19.6524    5.9907 C.ar      1 UNK         0.0000
   3425 C(2)       23.5556   19.6543    4.7979 C.ar      1 UNK         0.0000
   3426 C(3)       24.6333   20.5210    4.6412 C.ar      1 UNK         0.0000
   3427 C(4)       25.0036   21.3832    5.6701 C.ar      1 UNK         0.0000
   3428 C(5)       24.3003   21.3595    6.8738 C.ar      1 UNK         0.0000
   3429 C(6)       23.2224   20.4995    7.0288 C.ar      1 UNK         0.0000
   3430 C(7)       20.9181   18.2103    5.3565 C.2       1 UNK         0.0000
   3431 C(8)       19.7947   17.4088    5.9575 C.3       1 UNK         0.0000
   3432 H(1)       23.2772   18.9915    3.9879 H         1 UNK         0.0000
   3433 H(2)       25.1801   20.5103    3.7064 H         1 UNK         0.0000
   3434 H(3)       24.5932   22.0153    7.6844 H         1 UNK         0.0000
   3435 H(4)       22.6755   20.4831    7.9634 H         1 UNK         0.0000
   3436 H(5)       26.3727   22.5873    6.2966 H         1 UNK         0.0000
   3437 H(6)       21.4670   18.7175    7.2155 H         1 UNK         0.0000
   3438 H(7)       20.0131   16.3783    5.8482 H         1 UNK         0.0000
   3439 H(8)       19.6429   17.6160    6.9849 H         1 UNK         0.0000
   3440 H(9)       18.9141   17.5732    5.3927 H         1 UNK         0.0000
   3441 O(1)       33.2944   19.0458   15.9746 O.3       1 UNK         0.0000
   3442 O(2)       28.3205   22.9903   14.6478 O.2       1 UNK         0.0000
   3443 N(1)       28.9715   22.4660   16.7595 N.am      1 UNK         0.0000
   3444 C(1)       30.0788   21.6261   16.5055 C.ar      1 UNK         0.0000
   3445 C(2)       30.8017   21.6242   15.3126 C.ar      1 UNK         0.0000
   3446 C(3)       31.8793   20.7575   15.1560 C.ar      1 UNK         0.0000
   3447 C(4)       32.2496   19.8953   16.1849 C.ar      1 UNK         0.0000
   3448 C(5)       31.5463   19.9190   17.3886 C.ar      1 UNK         0.0000
   3449 C(6)       30.4685   20.7790   17.5435 C.ar      1 UNK         0.0000
   3450 C(7)       28.1642   23.0682   15.8713 C.2       1 UNK         0.0000
   3451 C(8)       27.0407   23.8697   16.4723 C.3       1 UNK         0.0000
   3452 H(1)       30.5232   22.2870   14.5027 H         1 UNK         0.0000
   3453 H(2)       32.4261   20.7682   14.2212 H         1 UNK         0.0000
   3454 H(3)       31.8392   19.2632   18.1992 H         1 UNK         0.0000
   3455 H(4)       29.9216   20.7954   18.4782 H         1 UNK         0.0000
   3456 H(5)       33.6187   18.6912   16.8114 H         1 UNK         0.0000
   3457 H(6)       28.7130   22.5611   17.7302 H         1 UNK         0.0000
   3458 H(7)       27.2592   24.9002   16.3629 H         1 UNK         0.0000
   3459 H(8)       26.8889   23.6625   17.4996 H         1 UNK         0.0000
   3460 H(9)       26.1602   23.7053   15.9074 H         1 UNK         0.0000
   3461 O(1)       34.7398   14.4593   21.7753 O.3       1 UNK         0.0000
   3462 O(2)       39.7137   18.4038   23.1020 O.2       1 UNK         0.0000
   3463 N(1)       39.0626   17.8795   20.9903 N.am      1 UNK         0.0000
   3464 C(1)       37.9553   17.0396   21.2444 C.ar      1 UNK         0.0000
   3465 C(2)       37.2325   17.0377   22.4372 C.ar      1 UNK         0.0000
   3466 C(3)       36.1548   16.1710   22.5939 C.ar      1 UNK         0.0000
   3467 C(4)       35.7845   15.3088   21.5650 C.ar      1 UNK         0.0000
   3468 C(5)       36.4878   15.3325   20.3613 C.ar      1 UNK         0.0000
   3469 C(6)       37.5656   16.1925   20.2063 C.ar      1 UNK         0.0000
   3470 C(7)       39.8700   18.4817   21.8786 C.2       1 UNK         0.0000
   3471 C(8)       40.9934   19.2832   21.2776 C.3       1 UNK         0.0000
   3472 H(1)       37.5109   17.7005   23.2472 H         1 UNK         0.0000
   3473 H(2)       35.6080   16.1817   23.5287 H         1 UNK         0.0000
   3474 H(3)       36.1949   14.6767   19.5507 H         1 UNK         0.0000
   3475 H(4)       38.1126   16.2089   19.2717 H         1 UNK         0.0000
   3476 H(5)       34.4154   14.1047   20.9385 H         1 UNK         0.0000
   3477 H(6)       39.3211   17.9746   20.0196 H         1 UNK         0.0000
   3478 H(7)       40.7750   20.3137   21.3869 H         1 UNK         0.0000
   3479 H(8)       41.1452   19.0760   20.2502 H         1 UNK         0.0000
   3480 H(9)       41.8739   19.1188   21.8424 H         1 UNK         0.0000
   3481 O(1)       27.4937   26.8192   11.2605 O.3       1 UNK         0.0000
   3482 O(2)       32.4676   22.8747   12.5873 O.2       1 UNK         0.0000
   3483 N(1)       31.8166   23.3990   10.4756 N.am      1 UNK         0.0000
   3484 C(1)       30.7092   24.2389   10.7296 C.ar      1 UNK         0.0000
   3485 C(2)       29.9864   24.2408   11.9225 C.ar      1 UNK         0.0000
   3486 C(3)       28.9087   25.1075   12.0791 C.ar      1 UNK         0.0000
   3487 C(4)       28.5384   25.9697   11.0502 C.ar      1 UNK         0.0000
   3488 C(5)       29.2418   25.9460    9.8465 C.ar      1 UNK         0.0000
   3489 C(6)       30.3196   25.0860    9.6916 C.ar      1 UNK         0.0000
   3490 C(7)       32.6239   22.7968   11.3638 C.2       1 UNK         0.0000
   3491 C(8)       33.7474   21.9953   10.7628 C.3       1 UNK         0.0000
   3492 H(1)       30.2649   23.5780   12.7324 H         1 UNK         0.0000
   3493 H(2)       28.3620   25.0968   13.0139 H         1 UNK         0.0000
   3494 H(3)       28.9488   26.6018    9.0359 H         1 UNK         0.0000
   3495 H(4)       30.8665   25.0696    8.7569 H         1 UNK         0.0000
   3496 H(5)       27.1694   27.1738   10.4237 H         1 UNK         0.0000
   3497 H(6)       32.0751   23.3040    9.5049 H         1 UNK         0.0000
   3498 H(7)       33.5289   20.9648   10.8722 H         1 UNK         0.0000
   3499 H(8)       33.8991   22.2025    9.7355 H         1 UNK         0.0000
   3500 H(9)       34.6279   22.1597   11.3277 H         1 UNK         0.0000
   3501 O(1)       38.5950   22.2327   12.4697 O.3       1 UNK         0.0000
   3502 O(2)       33.6211   18.2882   11.1429 O.2       1 UNK         0.0000
   3503 N(1)       34.2722   18.8125   13.2546 N.am      1 UNK         0.0000
   3504 C(1)       35.3795   19.6524   13.0005 C.ar      1 UNK         0.0000
   3505 C(2)       36.1023   19.6543   11.8077 C.ar      1 UNK         0.0000
   3506 C(3)       37.1800   20.5210   11.6511 C.ar      1 UNK         0.0000
   3507 C(4)       37.5503   21.3832   12.6800 C.ar      1 UNK         0.0000
   3508 C(5)       36.8469   21.3595   13.8837 C.ar      1 UNK         0.0000
   3509 C(6)       35.7691   20.4995   14.0386 C.ar      1 UNK         0.0000
   3510 C(7)       33.4648   18.2103   12.3664 C.2       1 UNK         0.0000
   3511 C(8)       32.3414   17.4088   12.9673 C.3       1 UNK         0.0000
   3512 H(1)       35.8239   18.9915   10.9978 H         1 UNK         0.0000
   3513 H(2)       37.7268   20.5103   10.7162 H         1 UNK         0.0000
   3514 H(3)       37.1399   22.0153   14.6943 H         1 UNK         0.0000
   3515 H(4)       35.2222   20.4831   14.9733 H         1 UNK         0.0000
   3516 H(5)       38.9194   22.5873   13.3065 H         1 UNK         0.0000
   3517 H(6)       34.0137   18.7175   14.2253 H         1 UNK         0.0000
   3518 H(7)       32.5598   16.3783   12.8580 H         1 UNK         0.0000
   3519 H(8)       32.1896   17.6160   13.9947 H         1 UNK         0.0000
   3520 H(9)       31.4608   17.5732   12.4025 H         1 UNK         0.0000
   3521 O(1)       34.2671   19.0458    1.7534 O.3       1 UNK         0.0000
   3522 O(2)       29.2932   22.9903    0.4267 O.2       1 UNK         0.0000
   3523 N(1)       29.9442   22.4660    2.5384 N.am      1 UNK         0.0000
   3524 C(1)       31.0515   21.6261    2.2843 C.ar      1 UNK         0.0000
   3525 C(2)       31.7744   21.6242    1.0915 C.ar      1 UNK         0.0000
   3526 C(3)       32.8520   20.7575    0.9348 C.ar      1 UNK         0.0000
   3527 C(4)       33.2223   19.8953    1.9637 C.ar      1 UNK         0.0000
   3528 C(5)       32.5190   19.9190    3.1674 C.ar      1 UNK         0.0000
   3529 C(6)       31.4412   20.7790    3.3223 C.ar      1 UNK         0.0000
   3530 C(7)       29.1369   23.0682    1.6501 C.2       1 UNK         0.0000
   3531 C(8)       28.0134   23.8697    2.2511 C.3       1 UNK         0.0000
   3532 H(1)       31.4959   22.2870    0.2815 H         1 UNK         0.0000
   3533 H(2)       33.3988   20.7682    0.0000 H         1 UNK         0.0000
   3534 H(3)       32.8119   19.2632    3.9780 H         1 UNK         0.0000
   3535 H(4)       30.8943   20.7954    4.2570 H         1 UNK         0.0000
   3536 H(5)       34.5914   18.6912    2.5902 H         1 UNK         0.0000
   3537 H(6)       29.6857   22.5611    3.5091 H         1 UNK         0.0000
   3538 H(7)       28.2319   24.9002    2.1418 H         1 UNK         0.0000
   3539 H(8)       27.8616   23.6625    3.2785 H         1 UNK         0.0000
   3540 H(9)       27.1329   23.7053    1.6863 H         1 UNK         0.0000
   3541 O(1)       21.2204   14.4593    7.7556 O.3       1 UNK         0.0000
   3542 O(2)       26.1943   18.4038    9.0824 O.2       1 UNK         0.0000
   3543 N(1)       25.5432   17.8795    6.9707 N.am      1 UNK         0.0000
   3544 C(1)       24.4359   17.0396    7.2247 C.ar      1 UNK         0.0000
   3545 C(2)       23.7131   17.0377    8.4175 C.ar      1 UNK         0.0000
   3546 C(3)       22.6354   16.1710    8.5742 C.ar      1 UNK         0.0000
   3547 C(4)       22.2651   15.3088    7.5453 C.ar      1 UNK         0.0000
   3548 C(5)       22.9684   15.3325    6.3416 C.ar      1 UNK         0.0000
   3549 C(6)       24.0463   16.1925    6.1867 C.ar      1 UNK         0.0000
   3550 C(7)       26.3506   18.4817    7.8589 C.2       1 UNK         0.0000
   3551 C(8)       27.4740   19.2832    7.2579 C.3       1 UNK         0.0000
   3552 H(1)       23.9915   17.7005    9.2275 H         1 UNK         0.0000
   3553 H(2)       22.0886   16.1817    9.5090 H         1 UNK         0.0000
   3554 H(3)       22.6755   14.6767    5.5310 H         1 UNK         0.0000
   3555 H(4)       24.5932   16.2089    5.2520 H         1 UNK         0.0000
   3556 H(5)       20.8960   14.1047    6.9188 H         1 UNK         0.0000
   3557 H(6)       25.8017   17.9746    5.9999 H         1 UNK         0.0000
   3558 H(7)       27.2556   20.3137    7.3672 H         1 UNK         0.0000
   3559 H(8)       27.6258   19.0760    6.2305 H         1 UNK         0.0000
   3560 H(9)       28.3546   19.1188    7.8227 H         1 UNK         0.0000
   3561 O(1)       28.4664   17.6462   18.2703 O.3       1 UNK         0.0000
   3562 O(2)       33.4403   13.7017   19.5971 O.2       1 UNK         0.0000
   3563 N(1)       32.7893   14.2260   17.4854 N.am      1 UNK         0.0000
   3564 C(1)       31.6819   15.0659   17.7395 C.ar      1 UNK         0.0000
   3565 C(2)       30.9591   15.0678   18.9323 C.ar      1 UNK         0.0000
   3566 C(3)       29.8814   15.9345   19.0889 C.ar      1 UNK         0.0000
   3567 C(4)       29.5111   16.7967   18.0600 C.ar      1 UNK         0.0000
   3568 C(5)       30.2145   16.7730   16.8563 C.ar      1 UNK         0.0000
   3569 C(6)       31.2923   15.9130   16.7014 C.ar      1 UNK         0.0000
   3570 C(7)       33.5966   13.6238   18.3737 C.2       1 UNK         0.0000
   3571 C(8)       34.7201   12.8223   17.7727 C.3       1 UNK         0.0000
   3572 H(1)       31.2376   14.4050   19.7422 H         1 UNK         0.0000
   3573 H(2)       29.3347   15.9238   20.0238 H         1 UNK         0.0000
   3574 H(3)       29.9215   17.4288   16.0457 H         1 UNK         0.0000
   3575 H(4)       31.8392   15.8966   15.7668 H         1 UNK         0.0000
   3576 H(5)       28.1421   18.0008   17.4335 H         1 UNK         0.0000
   3577 H(6)       33.0478   14.1310   16.5147 H         1 UNK         0.0000
   3578 H(7)       34.5016   11.7918   17.8820 H         1 UNK         0.0000
   3579 H(8)       34.8718   13.0295   16.7453 H         1 UNK         0.0000
   3580 H(9)       35.6006   12.9867   18.3375 H         1 UNK         0.0000
   3581 O(1)       27.9937   22.2327   19.4795 O.3       1 UNK         0.0000
   3582 O(2)       23.0198   18.2882   18.1527 O.2       1 UNK         0.0000
   3583 N(1)       23.6709   18.8125   20.2644 N.am      1 UNK         0.0000
   3584 C(1)       24.7782   19.6524   20.0104 C.ar      1 UNK         0.0000
   3585 C(2)       25.5010   19.6543   18.8176 C.ar      1 UNK         0.0000
   3586 C(3)       26.5787   20.5210   18.6609 C.ar      1 UNK         0.0000
   3587 C(4)       26.9490   21.3832   19.6898 C.ar      1 UNK         0.0000
   3588 C(5)       26.2456   21.3595   20.8935 C.ar      1 UNK         0.0000
   3589 C(6)       25.1678   20.4995   21.0484 C.ar      1 UNK         0.0000
   3590 C(7)       22.8635   18.2103   19.3762 C.2       1 UNK         0.0000
   3591 C(8)       21.7401   17.4088   19.9772 C.3       1 UNK         0.0000
   3592 H(1)       25.2226   18.9915   18.0076 H         1 UNK         0.0000
   3593 H(2)       27.1254   20.5103   17.7261 H         1 UNK         0.0000
   3594 H(3)       26.5386   22.0153   21.7041 H         1 UNK         0.0000
   3595 H(4)       24.6209   20.4831   21.9831 H         1 UNK         0.0000
   3596 H(5)       28.3181   22.5873   20.3163 H         1 UNK         0.0000
   3597 H(6)       23.4124   18.7175   21.2352 H         1 UNK         0.0000
   3598 H(7)       21.9585   16.3783   19.8678 H         1 UNK         0.0000
   3599 H(8)       21.5883   17.6160   21.0046 H         1 UNK         0.0000
   3600 H(9)       20.8595   17.5732   19.4124 H         1 UNK         0.0000
   3601 O(1)       32.3217   28.2188    8.9648 O.3       1 UNK         0.0000
   3602 O(2)       27.3478   32.1633    7.6380 O.2       1 UNK         0.0000
   3603 N(1)       27.9988   31.6390    9.7497 N.am      1 UNK         0.0000
   3604 C(1)       29.1061   30.7991    9.4956 C.ar      1 UNK         0.0000
   3605 C(2)       29.8290   30.7972    8.3028 C.ar      1 UNK         0.0000
   3606 C(3)       30.9066   29.9305    8.1462 C.ar      1 UNK         0.0000
   3607 C(4)       31.2770   29.0683    9.1751 C.ar      1 UNK         0.0000
   3608 C(5)       30.5736   29.0920   10.3788 C.ar      1 UNK         0.0000
   3609 C(6)       29.4958   29.9520   10.5337 C.ar      1 UNK         0.0000
   3610 C(7)       27.1915   32.2412    8.8614 C.2       1 UNK         0.0000
   3611 C(8)       26.0680   33.0427    9.4624 C.3       1 UNK         0.0000
   3612 H(1)       29.5505   31.4600    7.4929 H         1 UNK         0.0000
   3613 H(2)       31.4534   29.9412    7.2113 H         1 UNK         0.0000
   3614 H(3)       30.8666   28.4362   11.1894 H         1 UNK         0.0000
   3615 H(4)       28.9489   29.9684   11.4683 H         1 UNK         0.0000
   3616 H(5)       32.6460   27.8642    9.8016 H         1 UNK         0.0000
   3617 H(6)       27.7403   31.7340   10.7204 H         1 UNK         0.0000
   3618 H(7)       26.2865   34.0732    9.3531 H         1 UNK         0.0000
   3619 H(8)       25.9163   32.8355   10.4898 H         1 UNK         0.0000
   3620 H(9)       25.1875   32.8783    8.8976 H         1 UNK         0.0000
   3621 O(1)       22.1931   23.6323   14.7654 O.3       1 UNK         0.0000
   3622 O(2)       27.1670   27.5768   16.0922 O.2       1 UNK         0.0000
   3623 N(1)       26.5159   27.0525   13.9805 N.am      1 UNK         0.0000
   3624 C(1)       25.4086   26.2126   14.2346 C.ar      1 UNK         0.0000
   3625 C(2)       24.6858   26.2107   15.4274 C.ar      1 UNK         0.0000
   3626 C(3)       23.6081   25.3440   15.5840 C.ar      1 UNK         0.0000
   3627 C(4)       23.2378   24.4818   14.5551 C.ar      1 UNK         0.0000
   3628 C(5)       23.9411   24.5055   13.3514 C.ar      1 UNK         0.0000
   3629 C(6)       25.0190   25.3655   13.1965 C.ar      1 UNK         0.0000
   3630 C(7)       27.3233   27.6547   14.8687 C.2       1 UNK         0.0000
   3631 C(8)       28.4467   28.4562   14.2678 C.3       1 UNK         0.0000
   3632 H(1)       24.9642   26.8735   16.2373 H         1 UNK         0.0000
   3633 H(2)       23.0613   25.3547   16.5188 H         1 UNK         0.0000
   3634 H(3)       23.6482   23.8497   12.5408 H         1 UNK         0.0000
   3635 H(4)       25.5659   25.3819   12.2618 H         1 UNK         0.0000
   3636 H(5)       21.8687   23.2777   13.9286 H         1 UNK         0.0000
   3637 H(6)       26.7744   27.1475   13.0098 H         1 UNK         0.0000
   3638 H(7)       28.2283   29.4867   14.3771 H         1 UNK         0.0000
   3639 H(8)       28.5985   28.2490   13.2404 H         1 UNK         0.0000
   3640 H(9)       29.3272   28.2918   14.8326 H         1 UNK         0.0000
   3641 O(1)       26.5210   35.9922    4.2507 O.3       1 UNK         0.0000
   3642 O(2)       31.4949   32.0477    5.5774 O.2       1 UNK         0.0000
   3643 N(1)       30.8439   32.5720    3.4657 N.am      1 UNK         0.0000
   3644 C(1)       29.7366   33.4119    3.7198 C.ar      1 UNK         0.0000
   3645 C(2)       29.0137   33.4138    4.9126 C.ar      1 UNK         0.0000
   3646 C(3)       27.9361   34.2805    5.0693 C.ar      1 UNK         0.0000
   3647 C(4)       27.5657   35.1427    4.0404 C.ar      1 UNK         0.0000
   3648 C(5)       28.2691   35.1190    2.8367 C.ar      1 UNK         0.0000
   3649 C(6)       29.3469   34.2590    2.6817 C.ar      1 UNK         0.0000
   3650 C(7)       31.6512   31.9698    4.3540 C.2       1 UNK         0.0000
   3651 C(8)       32.7747   31.1683    3.7530 C.3       1 UNK         0.0000
   3652 H(1)       29.2922   32.7510    5.7226 H         1 UNK         0.0000
   3653 H(2)       27.3893   34.2698    6.0041 H         1 UNK         0.0000
   3654 H(3)       27.9761   35.7748    2.0261 H         1 UNK         0.0000
   3655 H(4)       29.8938   34.2426    1.7471 H         1 UNK         0.0000
   3656 H(5)       26.1967   36.3468    3.4139 H         1 UNK         0.0000
   3657 H(6)       31.1024   32.4770    2.4950 H         1 UNK         0.0000
   3658 H(7)       32.5562   30.1378    3.8623 H         1 UNK         0.0000
   3659 H(8)       32.9264   31.3755    2.7256 H         1 UNK         0.0000
   3660 H(9)       33.6552   31.3327    4.3178 H         1 UNK         0.0000
   3661 O(1)       26.0483   31.4057    5.4598 O.3       1 UNK         0.0000
   3662 O(2)       21.0744   27.4612    4.1331 O.2       1 UNK         0.0000
   3663 N(1)       21.7255   27.9855    6.2448 N.am      1 UNK         0.0000
   3664 C(1)       22.8328   28.8254    5.9907 C.ar      1 UNK         0.0000
   3665 C(2)       23.5556   28.8273    4.7979 C.ar      1 UNK         0.0000
   3666 C(3)       24.6333   29.6940    4.6412 C.ar      1 UNK         0.0000
   3667 C(4)       25.0036   30.5562    5.6701 C.ar      1 UNK         0.0000
   3668 C(5)       24.3003   30.5325    6.8738 C.ar      1 UNK         0.0000
   3669 C(6)       23.2224   29.6725    7.0288 C.ar      1 UNK         0.0000
   3670 C(7)       20.9181   27.3833    5.3565 C.2       1 UNK         0.0000
   3671 C(8)       19.7947   26.5818    5.9575 C.3       1 UNK         0.0000
   3672 H(1)       23.2772   28.1645    3.9879 H         1 UNK         0.0000
   3673 H(2)       25.1801   29.6833    3.7064 H         1 UNK         0.0000
   3674 H(3)       24.5932   31.1883    7.6844 H         1 UNK         0.0000
   3675 H(4)       22.6755   29.6561    7.9634 H         1 UNK         0.0000
   3676 H(5)       26.3727   31.7603    6.2966 H         1 UNK         0.0000
   3677 H(6)       21.4670   27.8905    7.2155 H         1 UNK         0.0000
   3678 H(7)       20.0131   25.5513    5.8482 H         1 UNK         0.0000
   3679 H(8)       19.6429   26.7890    6.9849 H         1 UNK         0.0000
   3680 H(9)       18.9141   26.7462    5.3927 H         1 UNK         0.0000
   3681 O(1)       33.2944   28.2188   15.9746 O.3       1 UNK         0.0000
   3682 O(2)       28.3205   32.1633   14.6478 O.2       1 UNK         0.0000
   3683 N(1)       28.9715   31.6390   16.7595 N.am      1 UNK         0.0000
   3684 C(1)       30.0788   30.7991   16.5055 C.ar      1 UNK         0.0000
   3685 C(2)       30.8017   30.7972   15.3126 C.ar      1 UNK         0.0000
   3686 C(3)       31.8793   29.9305   15.1560 C.ar      1 UNK         0.0000
   3687 C(4)       32.2496   29.0683   16.1849 C.ar      1 UNK         0.0000
   3688 C(5)       31.5463   29.0920   17.3886 C.ar      1 UNK         0.0000
   3689 C(6)       30.4685   29.9520   17.5435 C.ar      1 UNK         0.0000
   3690 C(7)       28.1642   32.2412   15.8713 C.2       1 UNK         0.0000
   3691 C(8)       27.0407   33.0427   16.4723 C.3       1 UNK         0.0000
   3692 H(1)       30.5232   31.4600   14.5027 H         1 UNK         0.0000
   3693 H(2)       32.4261   29.9412   14.2212 H         1 UNK         0.0000
   3694 H(3)       31.8392   28.4362   18.1992 H         1 UNK         0.0000
   3695 H(4)       29.9216   29.9684   18.4782 H         1 UNK         0.0000
   3696 H(5)       33.6187   27.8642   16.8114 H         1 UNK         0.0000
   3697 H(6)       28.7130   31.7340   17.7302 H         1 UNK         0.0000
   3698 H(7)       27.2592   34.0732   16.3629 H         1 UNK         0.0000
   3699 H(8)       26.8889   32.8355   17.4996 H         1 UNK         0.0000
   3700 H(9)       26.1602   32.8783   15.9074 H         1 UNK         0.0000
   3701 O(1)       34.7398   23.6323   21.7753 O.3       1 UNK         0.0000
   3702 O(2)       39.7137   27.5768   23.1020 O.2       1 UNK         0.0000
   3703 N(1)       39.0626   27.0525   20.9903 N.am      1 UNK         0.0000
   3704 C(1)       37.9553   26.2126   21.2444 C.ar      1 UNK         0.0000
   3705 C(2)       37.2325   26.2107   22.4372 C.ar      1 UNK         0.0000
   3706 C(3)       36.1548   25.3440   22.5939 C.ar      1 UNK         0.0000
   3707 C(4)       35.7845   24.4818   21.5650 C.ar      1 UNK         0.0000
   3708 C(5)       36.4878   24.5055   20.3613 C.ar      1 UNK         0.0000
   3709 C(6)       37.5656   25.3655   20.2063 C.ar      1 UNK         0.0000
   3710 C(7)       39.8700   27.6547   21.8786 C.2       1 UNK         0.0000
   3711 C(8)       40.9934   28.4562   21.2776 C.3       1 UNK         0.0000
   3712 H(1)       37.5109   26.8735   23.2472 H         1 UNK         0.0000
   3713 H(2)       35.6080   25.3547   23.5287 H         1 UNK         0.0000
   3714 H(3)       36.1949   23.8497   19.5507 H         1 UNK         0.0000
   3715 H(4)       38.1126   25.3819   19.2717 H         1 UNK         0.0000
   3716 H(5)       34.4154   23.2777   20.9385 H         1 UNK         0.0000
   3717 H(6)       39.3211   27.1475   20.0196 H         1 UNK         0.0000
   3718 H(7)       40.7750   29.4867   21.3869 H         1 UNK         0.0000
   3719 H(8)       41.1452   28.2490   20.2502 H         1 UNK         0.0000
   3720 H(9)       41.8739   28.2918   21.8424 H         1 UNK         0.0000
   3721 O(1)       27.4937   35.9922   11.2605 O.3       1 UNK         0.0000
   3722 O(2)       32.4676   32.0477   12.5873 O.2       1 UNK         0.0000
   3723 N(1)       31.8166   32.5720   10.4756 N.am      1 UNK         0.0000
   3724 C(1)       30.7092   33.4119   10.7296 C.ar      1 UNK         0.0000
   3725 C(2)       29.9864   33.4138   11.9225 C.ar      1 UNK         0.0000
   3726 C(3)       28.9087   34.2805   12.0791 C.ar      1 UNK         0.0000
   3727 C(4)       28.5384   35.1427   11.0502 C.ar      1 UNK         0.0000
   3728 C(5)       29.2418   35.1190    9.8465 C.ar      1 UNK         0.0000
   3729 C(6)       30.3196   34.2590    9.6916 C.ar      1 UNK         0.0000
   3730 C(7)       32.6239   31.9698   11.3638 C.2       1 UNK         0.0000
   3731 C(8)       33.7474   31.1683   10.7628 C.3       1 UNK         0.0000
   3732 H(1)       30.2649   32.7510   12.7324 H         1 UNK         0.0000
   3733 H(2)       28.3620   34.2698   13.0139 H         1 UNK         0.0000
   3734 H(3)       28.9488   35.7748    9.0359 H         1 UNK         0.0000
   3735 H(4)       30.8665   34.2426    8.7569 H         1 UNK         0.0000
   3736 H(5)       27.1694   36.3468   10.4237 H         1 UNK         0.0000
   3737 H(6)       32.0751   32.4770    9.5049 H         1 UNK         0.0000
   3738 H(7)       33.5289   30.1378   10.8722 H         1 UNK         0.0000
   3739 H(8)       33.8991   31.3755    9.7355 H         1 UNK         0.0000
   3740 H(9)       34.6279   31.3327   11.3277 H         1 UNK         0.0000
   3741 O(1)       38.5950   31.4057   12.4697 O.3       1 UNK         0.0000
   3742 O(2)       33.6211   27.4612   11.1429 O.2       1 UNK         0.0000
   3743 N(1)       34.2722   27.9855   13.2546 N.am      1 UNK         0.0000
   3744 C(1)       35.3795   28.8254   13.0005 C.ar      1 UNK         0.0000
   3745 C(2)       36.1023   28.8273   11.8077 C.ar      1 UNK         0.0000
   3746 C(3)       37.1800   29.6940   11.6511 C.ar      1 UNK         0.0000
   3747 C(4)       37.5503   30.5562   12.6800 C.ar      1 UNK         0.0000
   3748 C(5)       36.8469   30.5325   13.8837 C.ar      1 UNK         0.0000
   3749 C(6)       35.7691   29.6725   14.0386 C.ar      1 UNK         0.0000
   3750 C(7)       33.4648   27.3833   12.3664 C.2       1 UNK         0.0000
   3751 C(8)       32.3414   26.5818   12.9673 C.3       1 UNK         0.0000
   3752 H(1)       35.8239   28.1645   10.9978 H         1 UNK         0.0000
   3753 H(2)       37.7268   29.6833   10.7162 H         1 UNK         0.0000
   3754 H(3)       37.1399   31.1883   14.6943 H         1 UNK         0.0000
   3755 H(4)       35.2222   29.6561   14.9733 H         1 UNK         0.0000
   3756 H(5)       38.9194   31.7603   13.3065 H         1 UNK         0.0000
   3757 H(6)       34.0137   27.8905   14.2253 H         1 UNK         0.0000
   3758 H(7)       32.5598   25.5513   12.8580 H         1 UNK         0.0000
   3759 H(8)       32.1896   26.7890   13.9947 H         1 UNK         0.0000
   3760 H(9)       31.4608   26.7462   12.4025 H         1 UNK         0.0000
   3761 O(1)       34.2671   28.2188    1.7534 O.3       1 UNK         0.0000
   3762 O(2)       29.2932   32.1633    0.4267 O.2       1 UNK         0.0000
   3763 N(1)       29.9442   31.6390    2.5384 N.am      1 UNK         0.0000
   3764 C(1)       31.0515   30.7991    2.2843 C.ar      1 UNK         0.0000
   3765 C(2)       31.7744   30.7972    1.0915 C.ar      1 UNK         0.0000
   3766 C(3)       32.8520   29.9305    0.9348 C.ar      1 UNK         0.0000
   3767 C(4)       33.2223   29.0683    1.9637 C.ar      1 UNK         0.0000
   3768 C(5)       32.5190   29.0920    3.1674 C.ar      1 UNK         0.0000
   3769 C(6)       31.4412   29.9520    3.3223 C.ar      1 UNK         0.0000
   3770 C(7)       29.1369   32.2412    1.6501 C.2       1 UNK         0.0000
   3771 C(8)       28.0134   33.0427    2.2511 C.3       1 UNK         0.0000
   3772 H(1)       31.4959   31.4600    0.2815 H         1 UNK         0.0000
   3773 H(2)       33.3988   29.9412    0.0000 H         1 UNK         0.0000
   3774 H(3)       32.8119   28.4362    3.9780 H         1 UNK         0.0000
   3775 H(4)       30.8943   29.9684    4.2570 H         1 UNK         0.0000
   3776 H(5)       34.5914   27.8642    2.5902 H         1 UNK         0.0000
   3777 H(6)       29.6857   31.7340    3.5091 H         1 UNK         0.0000
   3778 H(7)       28.2319   34.0732    2.1418 H         1 UNK         0.0000
   3779 H(8)       27.8616   32.8355    3.2785 H         1 UNK         0.0000
   3780 H(9)       27.1329   32.8783    1.6863 H         1 UNK         0.0000
   3781 O(1)       21.2204   23.6323    7.7556 O.3       1 UNK         0.0000
   3782 O(2)       26.1943   27.5768    9.0824 O.2       1 UNK         0.0000
   3783 N(1)       25.5432   27.0525    6.9707 N.am      1 UNK         0.0000
   3784 C(1)       24.4359   26.2126    7.2247 C.ar      1 UNK         0.0000
   3785 C(2)       23.7131   26.2107    8.4175 C.ar      1 UNK         0.0000
   3786 C(3)       22.6354   25.3440    8.5742 C.ar      1 UNK         0.0000
   3787 C(4)       22.2651   24.4818    7.5453 C.ar      1 UNK         0.0000
   3788 C(5)       22.9684   24.5055    6.3416 C.ar      1 UNK         0.0000
   3789 C(6)       24.0463   25.3655    6.1867 C.ar      1 UNK         0.0000
   3790 C(7)       26.3506   27.6547    7.8589 C.2       1 UNK         0.0000
   3791 C(8)       27.4740   28.4562    7.2579 C.3       1 UNK         0.0000
   3792 H(1)       23.9915   26.8735    9.2275 H         1 UNK         0.0000
   3793 H(2)       22.0886   25.3547    9.5090 H         1 UNK         0.0000
   3794 H(3)       22.6755   23.8497    5.5310 H         1 UNK         0.0000
   3795 H(4)       24.5932   25.3819    5.2520 H         1 UNK         0.0000
   3796 H(5)       20.8960   23.2777    6.9188 H         1 UNK         0.0000
   3797 H(6)       25.8017   27.1475    5.9999 H         1 UNK         0.0000
   3798 H(7)       27.2556   29.4867    7.3672 H         1 UNK         0.0000
   3799 H(8)       27.6258   28.2490    6.2305 H         1 UNK         0.0000
   3800 H(9)       28.3546   28.2918    7.8227 H         1 UNK         0.0000
   3801 O(1)       28.4664   26.8192   18.2703 O.3       1 UNK         0.0000
   3802 O(2)       33.4403   22.8747   19.5971 O.2       1 UNK         0.0000
   3803 N(1)       32.7893   23.3990   17.4854 N.am      1 UNK         0.0000
   3804 C(1)       31.6819   24.2389   17.7395 C.ar      1 UNK         0.0000
   3805 C(2)       30.9591   24.2408   18.9323 C.ar      1 UNK         0.0000
   3806 C(3)       29.8814   25.1075   19.0889 C.ar      1 UNK         0.0000
   3807 C(4)       29.5111   25.9697   18.0600 C.ar      1 UNK         0.0000
   3808 C(5)       30.2145   25.9460   16.8563 C.ar      1 UNK         0.0000
   3809 C(6)       31.2923   25.0860   16.7014 C.ar      1 UNK         0.0000
   3810 C(7)       33.5966   22.7968   18.3737 C.2       1 UNK         0.0000
   3811 C(8)       34.7201   21.9953   17.7727 C.3       1 UNK         0.0000
   3812 H(1)       31.2376   23.5780   19.7422 H         1 UNK         0.0000
   3813 H(2)       29.3347   25.0968   20.0238 H         1 UNK         0.0000
   3814 H(3)       29.9215   26.6018   16.0457 H         1 UNK         0.0000
   3815 H(4)       31.8392   25.0696   15.7668 H         1 UNK         0.0000
   3816 H(5)       28.1421   27.1738   17.4335 H         1 UNK         0.0000
   3817 H(6)       33.0478   23.3040   16.5147 H         1 UNK         0.0000
   3818 H(7)       34.5016   20.9648   17.8820 H         1 UNK         0.0000
   3819 H(8)       34.8718   22.2025   16.7453 H         1 UNK         0.0000
   3820 H(9)       35.6006   22.1597   18.3375 H         1 UNK         0.0000
   3821 O(1)       27.9937   31.4057   19.4795 O.3       1 UNK         0.0000
   3822 O(2)       23.0198   27.4612   18.1527 O.2       1 UNK         0.0000
   3823 N(1)       23.6709   27.9855   20.2644 N.am      1 UNK         0.0000
   3824 C(1)       24.7782   28.8254   20.0104 C.ar      1 UNK         0.0000
   3825 C(2)       25.5010   28.8273   18.8176 C.ar      1 UNK         0.0000
   3826 C(3)       26.5787   29.6940   18.6609 C.ar      1 UNK         0.0000
   3827 C(4)       26.9490   30.5562   19.6898 C.ar      1 UNK         0.0000
   3828 C(5)       26.2456   30.5325   20.8935 C.ar      1 UNK         0.0000
   3829 C(6)       25.1678   29.6725   21.0484 C.ar      1 UNK         0.0000
   3830 C(7)       22.8635   27.3833   19.3762 C.2       1 UNK         0.0000
   3831 C(8)       21.7401   26.5818   19.9772 C.3       1 UNK         0.0000
   3832 H(1)       25.2226   28.1645   18.0076 H         1 UNK         0.0000
   3833 H(2)       27.1254   29.6833   17.7261 H         1 UNK         0.0000
   3834 H(3)       26.5386   31.1883   21.7041 H         1 UNK         0.0000
   3835 H(4)       24.6209   29.6561   21.9831 H         1 UNK         0.0000
   3836 H(5)       28.3181   31.7603   20.3163 H         1 UNK         0.0000
   3837 H(6)       23.4124   27.8905   21.2352 H         1 UNK         0.0000
   3838 H(7)       21.9585   25.5513   19.8678 H         1 UNK         0.0000
   3839 H(8)       21.5883   26.7890   21.0046 H         1 UNK         0.0000
   3840 H(9)       20.8595   26.7462   19.4124 H         1 UNK         0.0000
   3841 O(1)       32.3217   37.3918    8.9648 O.3       1 UNK         0.0000
   3842 O(2)       27.3478   41.3363    7.6380 O.2       1 UNK         0.0000
   3843 N(1)       27.9988   40.8120    9.7497 N.am      1 UNK         0.0000
   3844 C(1)       29.1061   39.9721    9.4956 C.ar      1 UNK         0.0000
   3845 C(2)       29.8290   39.9702    8.3028 C.ar      1 UNK         0.0000
   3846 C(3)       30.9066   39.1035    8.1462 C.ar      1 UNK         0.0000
   3847 C(4)       31.2770   38.2413    9.1751 C.ar      1 UNK         0.0000
   3848 C(5)       30.5736   38.2650   10.3788 C.ar      1 UNK         0.0000
   3849 C(6)       29.4958   39.1250   10.5337 C.ar      1 UNK         0.0000
   3850 C(7)       27.1915   41.4142    8.8614 C.2       1 UNK         0.0000
   3851 C(8)       26.0680   42.2157    9.4624 C.3       1 UNK         0.0000
   3852 H(1)       29.5505   40.6330    7.4929 H         1 UNK         0.0000
   3853 H(2)       31.4534   39.1142    7.2113 H         1 UNK         0.0000
   3854 H(3)       30.8666   37.6092   11.1894 H         1 UNK         0.0000
   3855 H(4)       28.9489   39.1414   11.4683 H         1 UNK         0.0000
   3856 H(5)       32.6460   37.0372    9.8016 H         1 UNK         0.0000
   3857 H(6)       27.7403   40.9070   10.7204 H         1 UNK         0.0000
   3858 H(7)       26.2865   43.2462    9.3531 H         1 UNK         0.0000
   3859 H(8)       25.9163   42.0085   10.4898 H         1 UNK         0.0000
   3860 H(9)       25.1875   42.0513    8.8976 H         1 UNK         0.0000
   3861 O(1)       22.1931   32.8053   14.7654 O.3       1 UNK         0.0000
   3862 O(2)       27.1670   36.7498   16.0922 O.2       1 UNK         0.0000
   3863 N(1)       26.5159   36.2255   13.9805 N.am      1 UNK         0.0000
   3864 C(1)       25.4086   35.3856   14.2346 C.ar      1 UNK         0.0000
   3865 C(2)       24.6858   35.3837   15.4274 C.ar      1 UNK         0.0000
   3866 C(3)       23.6081   34.5170   15.5840 C.ar      1 UNK         0.0000
   3867 C(4)       23.2378   33.6548   14.5551 C.ar      1 UNK         0.0000
   3868 C(5)       23.9411   33.6785   13.3514 C.ar      1 UNK         0.0000
   3869 C(6)       25.0190   34.5385   13.1965 C.ar      1 UNK         0.0000
   3870 C(7)       27.3233   36.8277   14.8687 C.2       1 UNK         0.0000
   3871 C(8)       28.4467   37.6292   14.2678 C.3       1 UNK         0.0000
   3872 H(1)       24.9642   36.0465   16.2373 H         1 UNK         0.0000
   3873 H(2)       23.0613   34.5277   16.5188 H         1 UNK         0.0000
   3874 H(3)       23.6482   33.0227   12.5408 H         1 UNK         0.0000
   3875 H(4)       25.5659   34.5549   12.2618 H         1 UNK         0.0000
   3876 H(5)       21.8687   32.4507   13.9286 H         1 UNK         0.0000
   3877 H(6)       26.7744   36.3205   13.0098 H         1 UNK         0.0000
   3878 H(7)       28.2283   38.6597   14.3771 H         1 UNK         0.0000
   3879 H(8)       28.5985   37.4220   13.2404 H         1 UNK         0.0000
   3880 H(9)       29.3272   37.4648   14.8326 H         1 UNK         0.0000
   3881 O(1)       26.5210   45.1652    4.2507 O.3       1 UNK         0.0000
   3882 O(2)       31.4949   41.2207    5.5774 O.2       1 UNK         0.0000
   3883 N(1)       30.8439   41.7450    3.4657 N.am      1 UNK         0.0000
   3884 C(1)       29.7366   42.5849    3.7198 C.ar      1 UNK         0.0000
   3885 C(2)       29.0137   42.5868    4.9126 C.ar      1 UNK         0.0000
   3886 C(3)       27.9361   43.4535    5.0693 C.ar      1 UNK         0.0000
   3887 C(4)       27.5657   44.3157    4.0404 C.ar      1 UNK         0.0000
   3888 C(5)       28.2691   44.2920    2.8367 C.ar      1 UNK         0.0000
   3889 C(6)       29.3469   43.4320    2.6817 C.ar      1 UNK         0.0000
   3890 C(7)       31.6512   41.1428    4.3540 C.2       1 UNK         0.0000
   3891 C(8)       32.7747   40.3413    3.7530 C.3       1 UNK         0.0000
   3892 H(1)       29.2922   41.9240    5.7226 H         1 UNK         0.0000
   3893 H(2)       27.3893   43.4428    6.0041 H         1 UNK         0.0000
   3894 H(3)       27.9761   44.9478    2.0261 H         1 UNK         0.0000
   3895 H(4)       29.8938   43.4156    1.7471 H         1 UNK         0.0000
   3896 H(5)       26.1967   45.5198    3.4139 H         1 UNK         0.0000
   3897 H(6)       31.1024   41.6500    2.4950 H         1 UNK         0.0000
   3898 H(7)       32.5562   39.3108    3.8623 H         1 UNK         0.0000
   3899 H(8)       32.9264   40.5485    2.7256 H         1 UNK         0.0000
   3900 H(9)       33.6552   40.5057    4.3178 H         1 UNK         0.0000
   3901 O(1)       26.0483   40.5787    5.4598 O.3       1 UNK         0.0000
   3902 O(2)       21.0744   36.6342    4.1331 O.2       1 UNK         0.0000
   3903 N(1)       21.7255   37.1585    6.2448 N.am      1 UNK         0.0000
   3904 C(1)       22.8328   37.9984    5.9907 C.ar      1 UNK         0.0000
   3905 C(2)       23.5556   38.0003    4.7979 C.ar      1 UNK         0.0000
   3906 C(3)       24.6333   38.8670    4.6412 C.ar      1 UNK         0.0000
   3907 C(4)       25.0036   39.7292    5.6701 C.ar      1 UNK         0.0000
   3908 C(5)       24.3003   39.7055    6.8738 C.ar      1 UNK         0.0000
   3909 C(6)       23.2224   38.8455    7.0288 C.ar      1 UNK         0.0000
   3910 C(7)       20.9181   36.5563    5.3565 C.2       1 UNK         0.0000
   3911 C(8)       19.7947   35.7548    5.9575 C.3       1 UNK         0.0000
   3912 H(1)       23.2772   37.3375    3.9879 H         1 UNK         0.0000
   3913 H(2)       25.1801   38.8563    3.7064 H         1 UNK         0.0000
   3914 H(3)       24.5932   40.3613    7.6844 H         1 UNK         0.0000
   3915 H(4)       22.6755   38.8291    7.9634 H         1 UNK         0.0000
   3916 H(5)       26.3727   40.9333    6.2966 H         1 UNK         0.0000
   3917 H(6)       21.4670   37.0635    7.2155 H         1 UNK         0.0000
   3918 H(7)       20.0131   34.7243    5.8482 H         1 UNK         0.0000
   3919 H(8)       19.6429   35.9620    6.9849 H         1 UNK         0.0000
   3920 H(9)       18.9141   35.9192    5.3927 H         1 UNK         0.0000
   3921 O(1)       33.2944   37.3918   15.9746 O.3       1 UNK         0.0000
   3922 O(2)       28.3205   41.3363   14.6478 O.2       1 UNK         0.0000
   3923 N(1)       28.9715   40.8120   16.7595 N.am      1 UNK         0.0000
   3924 C(1)       30.0788   39.9721   16.5055 C.ar      1 UNK         0.0000
   3925 C(2)       30.8017   39.9702   15.3126 C.ar      1 UNK         0.0000
   3926 C(3)       31.8793   39.1035   15.1560 C.ar      1 UNK         0.0000
   3927 C(4)       32.2496   38.2413   16.1849 C.ar      1 UNK         0.0000
   3928 C(5)       31.5463   38.2650   17.3886 C.ar      1 UNK         0.0000
   3929 C(6)       30.4685   39.1250   17.5435 C.ar      1 UNK         0.0000
   3930 C(7)       28.1642   41.4142   15.8713 C.2       1 UNK         0.0000
   3931 C(8)       27.0407   42.2157   16.4723 C.3       1 UNK         0.0000
   3932 H(1)       30.5232   40.6330   14.5027 H         1 UNK         0.0000
   3933 H(2)       32.4261   39.1142   14.2212 H         1 UNK         0.0000
   3934 H(3)       31.8392   37.6092   18.1992 H         1 UNK         0.0000
   3935 H(4)       29.9216   39.1414   18.4782 H         1 UNK         0.0000
   3936 H(5)       33.6187   37.0372   16.8114 H         1 UNK         0.0000
   3937 H(6)       28.7130   40.9070   17.7302 H         1 UNK         0.0000
   3938 H(7)       27.2592   43.2462   16.3629 H         1 UNK         0.0000
   3939 H(8)       26.8889   42.0085   17.4996 H         1 UNK         0.0000
   3940 H(9)       26.1602   42.0513   15.9074 H         1 UNK         0.0000
   3941 O(1)       34.7398   32.8053   21.7753 O.3       1 UNK         0.0000
   3942 O(2)       39.7137   36.7498   23.1020 O.2       1 UNK         0.0000
   3943 N(1)       39.0626   36.2255   20.9903 N.am      1 UNK         0.0000
   3944 C(1)       37.9553   35.3856   21.2444 C.ar      1 UNK         0.0000
   3945 C(2)       37.2325   35.3837   22.4372 C.ar      1 UNK         0.0000
   3946 C(3)       36.1548   34.5170   22.5939 C.ar      1 UNK         0.0000
   3947 C(4)       35.7845   33.6548   21.5650 C.ar      1 UNK         0.0000
   3948 C(5)       36.4878   33.6785   20.3613 C.ar      1 UNK         0.0000
   3949 C(6)       37.5656   34.5385   20.2063 C.ar      1 UNK         0.0000
   3950 C(7)       39.8700   36.8277   21.8786 C.2       1 UNK         0.0000
   3951 C(8)       40.9934   37.6292   21.2776 C.3       1 UNK         0.0000
   3952 H(1)       37.5109   36.0465   23.2472 H         1 UNK         0.0000
   3953 H(2)       35.6080   34.5277   23.5287 H         1 UNK         0.0000
   3954 H(3)       36.1949   33.0227   19.5507 H         1 UNK         0.0000
   3955 H(4)       38.1126   34.5549   19.2717 H         1 UNK         0.0000
   3956 H(5)       34.4154   32.4507   20.9385 H         1 UNK         0.0000
   3957 H(6)       39.3211   36.3205   20.0196 H         1 UNK         0.0000
   3958 H(7)       40.7750   38.6597   21.3869 H         1 UNK         0.0000
   3959 H(8)       41.1452   37.4220   20.2502 H         1 UNK         0.0000
   3960 H(9)       41.8739   37.4648   21.8424 H         1 UNK         0.0000
   3961 O(1)       27.4937   45.1652   11.2605 O.3       1 UNK         0.0000
   3962 O(2)       32.4676   41.2207   12.5873 O.2       1 UNK         0.0000
   3963 N(1)       31.8166   41.7450   10.4756 N.am      1 UNK         0.0000
   3964 C(1)       30.7092   42.5849   10.7296 C.ar      1 UNK         0.0000
   3965 C(2)       29.9864   42.5868   11.9225 C.ar      1 UNK         0.0000
   3966 C(3)       28.9087   43.4535   12.0791 C.ar      1 UNK         0.0000
   3967 C(4)       28.5384   44.3157   11.0502 C.ar      1 UNK         0.0000
   3968 C(5)       29.2418   44.2920    9.8465 C.ar      1 UNK         0.0000
   3969 C(6)       30.3196   43.4320    9.6916 C.ar      1 UNK         0.0000
   3970 C(7)       32.6239   41.1428   11.3638 C.2       1 UNK         0.0000
   3971 C(8)       33.7474   40.3413   10.7628 C.3       1 UNK         0.0000
   3972 H(1)       30.2649   41.9240   12.7324 H         1 UNK         0.0000
   3973 H(2)       28.3620   43.4428   13.0139 H         1 UNK         0.0000
   3974 H(3)       28.9488   44.9478    9.0359 H         1 UNK         0.0000
   3975 H(4)       30.8665   43.4156    8.7569 H         1 UNK         0.0000
   3976 H(5)       27.1694   45.5198   10.4237 H         1 UNK         0.0000
   3977 H(6)       32.0751   41.6500    9.5049 H         1 UNK         0.0000
   3978 H(7)       33.5289   39.3108   10.8722 H         1 UNK         0.0000
   3979 H(8)       33.8991   40.5485    9.7355 H         1 UNK         0.0000
   3980 H(9)       34.6279   40.5057   11.3277 H         1 UNK         0.0000
   3981 O(1)       38.5950   40.5787   12.4697 O.3       1 UNK         0.0000
   3982 O(2)       33.6211   36.6342   11.1429 O.2       1 UNK         0.0000
   3983 N(1)       34.2722   37.1585   13.2546 N.am      1 UNK         0.0000
   3984 C(1)       35.3795   37.9984   13.0005 C.ar      1 UNK         0.0000
   3985 C(2)       36.1023   38.0003   11.8077 C.ar      1 UNK         0.0000
   3986 C(3)       37.1800   38.8670   11.6511 C.ar      1 UNK         0.0000
   3987 C(4)       37.5503   39.7292   12.6800 C.ar      1 UNK         0.0000
   3988 C(5)       36.8469   39.7055   13.8837 C.ar      1 UNK         0.0000
   3989 C(6)       35.7691   38.8455   14.0386 C.ar      1 UNK         0.0000
   3990 C(7)       33.4648   36.5563   12.3664 C.2       1 UNK         0.0000
   3991 C(8)       32.3414   35.7548   12.9673 C.3       1 UNK         0.0000
   3992 H(1)       35.8239   37.3375   10.9978 H         1 UNK         0.0000
   3993 H(2)       37.7268   38.8563   10.7162 H         1 UNK         0.0000
   3994 H(3)       37.1399   40.3613   14.6943 H         1 UNK         0.0000
   3995 H(4)       35.2222   38.8291   14.9733 H         1 UNK         0.0000
   3996 H(5)       38.9194   40.9333   13.3065 H         1 UNK         0.0000
   3997 H(6)       34.0137   37.0635   14.2253 H         1 UNK         0.0000
   3998 H(7)       32.5598   34.7243   12.8580 H         1 UNK         0.0000
   3999 H(8)       32.1896   35.9620   13.9947 H         1 UNK         0.0000
   4000 H(9)       31.4608   35.9192   12.4025 H         1 UNK         0.0000
   4001 O(1)       34.2671   37.3918    1.7534 O.3       1 UNK         0.0000
   4002 O(2)       29.2932   41.3363    0.4267 O.2       1 UNK         0.0000
   4003 N(1)       29.9442   40.8120    2.5384 N.am      1 UNK         0.0000
   4004 C(1)       31.0515   39.9721    2.2843 C.ar      1 UNK         0.0000
   4005 C(2)       31.7744   39.9702    1.0915 C.ar      1 UNK         0.0000
   4006 C(3)       32.8520   39.1035    0.9348 C.ar      1 UNK         0.0000
   4007 C(4)       33.2223   38.2413    1.9637 C.ar      1 UNK         0.0000
   4008 C(5)       32.5190   38.2650    3.1674 C.ar      1 UNK         0.0000
   4009 C(6)       31.4412   39.1250    3.3223 C.ar      1 UNK         0.0000
   4010 C(7)       29.1369   41.4142    1.6501 C.2       1 UNK         0.0000
   4011 C(8)       28.0134   42.2157    2.2511 C.3       1 UNK         0.0000
   4012 H(1)       31.4959   40.6330    0.2815 H         1 UNK         0.0000
   4013 H(2)       33.3988   39.1142    0.0000 H         1 UNK         0.0000
   4014 H(3)       32.8119   37.6092    3.9780 H         1 UNK         0.0000
   4015 H(4)       30.8943   39.1414    4.2570 H         1 UNK         0.0000
   4016 H(5)       34.5914   37.0372    2.5902 H         1 UNK         0.0000
   4017 H(6)       29.6857   40.9070    3.5091 H         1 UNK         0.0000
   4018 H(7)       28.2319   43.2462    2.1418 H         1 UNK         0.0000
   4019 H(8)       27.8616   42.0085    3.2785 H         1 UNK         0.0000
   4020 H(9)       27.1329   42.0513    1.6863 H         1 UNK         0.0000
   4021 O(1)       21.2204   32.8053    7.7556 O.3       1 UNK         0.0000
   4022 O(2)       26.1943   36.7498    9.0824 O.2       1 UNK         0.0000
   4023 N(1)       25.5432   36.2255    6.9707 N.am      1 UNK         0.0000
   4024 C(1)       24.4359   35.3856    7.2247 C.ar      1 UNK         0.0000
   4025 C(2)       23.7131   35.3837    8.4175 C.ar      1 UNK         0.0000
   4026 C(3)       22.6354   34.5170    8.5742 C.ar      1 UNK         0.0000
   4027 C(4)       22.2651   33.6548    7.5453 C.ar      1 UNK         0.0000
   4028 C(5)       22.9684   33.6785    6.3416 C.ar      1 UNK         0.0000
   4029 C(6)       24.0463   34.5385    6.1867 C.ar      1 UNK         0.0000
   4030 C(7)       26.3506   36.8277    7.8589 C.2       1 UNK         0.0000
   4031 C(8)       27.4740   37.6292    7.2579 C.3       1 UNK         0.0000
   4032 H(1)       23.9915   36.0465    9.2275 H         1 UNK         0.0000
   4033 H(2)       22.0886   34.5277    9.5090 H         1 UNK         0.0000
   4034 H(3)       22.6755   33.0227    5.5310 H         1 UNK         0.0000
   4035 H(4)       24.5932   34.5549    5.2520 H         1 UNK         0.0000
   4036 H(5)       20.8960   32.4507    6.9188 H         1 UNK         0.0000
   4037 H(6)       25.8017   36.3205    5.9999 H         1 UNK         0.0000
   4038 H(7)       27.2556   38.6597    7.3672 H         1 UNK         0.0000
   4039 H(8)       27.6258   37.4220    6.2305 H         1 UNK         0.0000
   4040 H(9)       28.3546   37.4648    7.8227 H         1 UNK         0.0000
   4041 O(1)       28.4664   35.9922   18.2703 O.3       1 UNK         0.0000
   4042 O(2)       33.4403   32.0477   19.5971 O.2       1 UNK         0.0000
   4043 N(1)       32.7893   32.5720   17.4854 N.am      1 UNK         0.0000
   4044 C(1)       31.6819   33.4119   17.7395 C.ar      1 UNK         0.0000
   4045 C(2)       30.9591   33.4138   18.9323 C.ar      1 UNK         0.0000
   4046 C(3)       29.8814   34.2805   19.0889 C.ar      1 UNK         0.0000
   4047 C(4)       29.5111   35.1427   18.0600 C.ar      1 UNK         0.0000
   4048 C(5)       30.2145   35.1190   16.8563 C.ar      1 UNK         0.0000
   4049 C(6)       31.2923   34.2590   16.7014 C.ar      1 UNK         0.0000
   4050 C(7)       33.5966   31.9698   18.3737 C.2       1 UNK         0.0000
   4051 C(8)       34.7201   31.1683   17.7727 C.3       1 UNK         0.0000
   4052 H(1)       31.2376   32.7510   19.7422 H         1 UNK         0.0000
   4053 H(2)       29.3347   34.2698   20.0238 H         1 UNK         0.0000
   4054 H(3)       29.9215   35.7748   16.0457 H         1 UNK         0.0000
   4055 H(4)       31.8392   34.2426   15.7668 H         1 UNK         0.0000
   4056 H(5)       28.1421   36.3468   17.4335 H         1 UNK         0.0000
   4057 H(6)       33.0478   32.4770   16.5147 H         1 UNK         0.0000
   4058 H(7)       34.5016   30.1378   17.8820 H         1 UNK         0.0000
   4059 H(8)       34.8718   31.3755   16.7453 H         1 UNK         0.0000
   4060 H(9)       35.6006   31.3327   18.3375 H         1 UNK         0.0000
   4061 O(1)       27.9937   40.5787   19.4795 O.3       1 UNK         0.0000
   4062 O(2)       23.0198   36.6342   18.1527 O.2       1 UNK         0.0000
   4063 N(1)       23.6709   37.1585   20.2644 N.am      1 UNK         0.0000
   4064 C(1)       24.7782   37.9984   20.0104 C.ar      1 UNK         0.0000
   4065 C(2)       25.5010   38.0003   18.8176 C.ar      1 UNK         0.0000
   4066 C(3)       26.5787   38.8670   18.6609 C.ar      1 UNK         0.0000
   4067 C(4)       26.9490   39.7292   19.6898 C.ar      1 UNK         0.0000
   4068 C(5)       26.2456   39.7055   20.8935 C.ar      1 UNK         0.0000
   4069 C(6)       25.1678   38.8455   21.0484 C.ar      1 UNK         0.0000
   4070 C(7)       22.8635   36.5563   19.3762 C.2       1 UNK         0.0000
   4071 C(8)       21.7401   35.7548   19.9772 C.3       1 UNK         0.0000
   4072 H(1)       25.2226   37.3375   18.0076 H         1 UNK         0.0000
   4073 H(2)       27.1254   38.8563   17.7261 H         1 UNK         0.0000
   4074 H(3)       26.5386   40.3613   21.7041 H         1 UNK         0.0000
   4075 H(4)       24.6209   38.8291   21.9831 H         1 UNK         0.0000
   4076 H(5)       28.3181   40.9333   20.3163 H         1 UNK         0.0000
   4077 H(6)       23.4124   37.0635   21.2352 H         1 UNK         0.0000
   4078 H(7)       21.9585   34.7243   19.8678 H         1 UNK         0.0000
   4079 H(8)       21.5883   35.9620   21.0046 H         1 UNK         0.0000
   4080 H(9)       20.8595   35.9192   19.4124 H         1 UNK         0.0000
   4081 O(1)       32.3217   46.5648    8.9648 O.3       1 UNK         0.0000
   4082 O(2)       27.3478   50.5093    7.6380 O.2       1 UNK         0.0000
   4083 N(1)       27.9988   49.9850    9.7497 N.am      1 UNK         0.0000
   4084 C(1)       29.1061   49.1451    9.4956 C.ar      1 UNK         0.0000
   4085 C(2)       29.8290   49.1432    8.3028 C.ar      1 UNK         0.0000
   4086 C(3)       30.9066   48.2765    8.1462 C.ar      1 UNK         0.0000
   4087 C(4)       31.2770   47.4143    9.1751 C.ar      1 UNK         0.0000
   4088 C(5)       30.5736   47.4380   10.3788 C.ar      1 UNK         0.0000
   4089 C(6)       29.4958   48.2980   10.5337 C.ar      1 UNK         0.0000
   4090 C(7)       27.1915   50.5872    8.8614 C.2       1 UNK         0.0000
   4091 C(8)       26.0680   51.3887    9.4624 C.3       1 UNK         0.0000
   4092 H(1)       29.5505   49.8060    7.4929 H         1 UNK         0.0000
   4093 H(2)       31.4534   48.2872    7.2113 H         1 UNK         0.0000
   4094 H(3)       30.8666   46.7822   11.1894 H         1 UNK         0.0000
   4095 H(4)       28.9489   48.3144   11.4683 H         1 UNK         0.0000
   4096 H(5)       32.6460   46.2102    9.8016 H         1 UNK         0.0000
   4097 H(6)       27.7403   50.0801   10.7204 H         1 UNK         0.0000
   4098 H(7)       26.2865   52.4192    9.3531 H         1 UNK         0.0000
   4099 H(8)       25.9163   51.1815   10.4898 H         1 UNK         0.0000
   4100 H(9)       25.1875   51.2243    8.8976 H         1 UNK         0.0000
   4101 O(1)       22.1931   41.9783   14.7654 O.3       1 UNK         0.0000
   4102 O(2)       27.1670   45.9228   16.0922 O.2       1 UNK         0.0000
   4103 N(1)       26.5159   45.3985   13.9805 N.am      1 UNK         0.0000
   4104 C(1)       25.4086   44.5586   14.2346 C.ar      1 UNK         0.0000
   4105 C(2)       24.6858   44.5567   15.4274 C.ar      1 UNK         0.0000
   4106 C(3)       23.6081   43.6900   15.5840 C.ar      1 UNK         0.0000
   4107 C(4)       23.2378   42.8278   14.5551 C.ar      1 UNK         0.0000
   4108 C(5)       23.9411   42.8515   13.3514 C.ar      1 UNK         0.0000
   4109 C(6)       25.0190   43.7115   13.1965 C.ar      1 UNK         0.0000
   4110 C(7)       27.3233   46.0007   14.8687 C.2       1 UNK         0.0000
   4111 C(8)       28.4467   46.8022   14.2678 C.3       1 UNK         0.0000
   4112 H(1)       24.9642   45.2195   16.2373 H         1 UNK         0.0000
   4113 H(2)       23.0613   43.7007   16.5188 H         1 UNK         0.0000
   4114 H(3)       23.6482   42.1957   12.5408 H         1 UNK         0.0000
   4115 H(4)       25.5659   43.7279   12.2618 H         1 UNK         0.0000
   4116 H(5)       21.8687   41.6237   13.9286 H         1 UNK         0.0000
   4117 H(6)       26.7744   45.4936   13.0098 H         1 UNK         0.0000
   4118 H(7)       28.2283   47.8327   14.3771 H         1 UNK         0.0000
   4119 H(8)       28.5985   46.5950   13.2404 H         1 UNK         0.0000
   4120 H(9)       29.3272   46.6378   14.8326 H         1 UNK         0.0000
   4121 O(1)       26.5210   54.3382    4.2507 O.3       1 UNK         0.0000
   4122 O(2)       31.4949   50.3937    5.5774 O.2       1 UNK         0.0000
   4123 N(1)       30.8439   50.9180    3.4657 N.am      1 UNK         0.0000
   4124 C(1)       29.7366   51.7579    3.7198 C.ar      1 UNK         0.0000
   4125 C(2)       29.0137   51.7598    4.9126 C.ar      1 UNK         0.0000
   4126 C(3)       27.9361   52.6265    5.0693 C.ar      1 UNK         0.0000
   4127 C(4)       27.5657   53.4887    4.0404 C.ar      1 UNK         0.0000
   4128 C(5)       28.2691   53.4650    2.8367 C.ar      1 UNK         0.0000
   4129 C(6)       29.3469   52.6050    2.6817 C.ar      1 UNK         0.0000
   4130 C(7)       31.6512   50.3158    4.3540 C.2       1 UNK         0.0000
   4131 C(8)       32.7747   49.5143    3.7530 C.3       1 UNK         0.0000
   4132 H(1)       29.2922   51.0970    5.7226 H         1 UNK         0.0000
   4133 H(2)       27.3893   52.6158    6.0041 H         1 UNK         0.0000
   4134 H(3)       27.9761   54.1208    2.0261 H         1 UNK         0.0000
   4135 H(4)       29.8938   52.5886    1.7471 H         1 UNK         0.0000
   4136 H(5)       26.1967   54.6928    3.4139 H         1 UNK         0.0000
   4137 H(6)       31.1024   50.8230    2.4950 H         1 UNK         0.0000
   4138 H(7)       32.5562   48.4838    3.8623 H         1 UNK         0.0000
   4139 H(8)       32.9264   49.7215    2.7256 H         1 UNK         0.0000
   4140 H(9)       33.6552   49.6787    4.3178 H         1 UNK         0.0000
   4141 O(1)       26.0483   49.7517    5.4598 O.3       1 UNK         0.0000
   4142 O(2)       21.0744   45.8072    4.1331 O.2       1 UNK         0.0000
   4143 N(1)       21.7255   46.3315    6.2448 N.am      1 UNK         0.0000
   4144 C(1)       22.8328   47.1714    5.9907 C.ar      1 UNK         0.0000
   4145 C(2)       23.5556   47.1733    4.7979 C.ar      1 UNK         0.0000
   4146 C(3)       24.6333   48.0400    4.6412 C.ar      1 UNK         0.0000
   4147 C(4)       25.0036   48.9022    5.6701 C.ar      1 UNK         0.0000
   4148 C(5)       24.3003   48.8785    6.8738 C.ar      1 UNK         0.0000
   4149 C(6)       23.2224   48.0185    7.0288 C.ar      1 UNK         0.0000
   4150 C(7)       20.9181   45.7293    5.3565 C.2       1 UNK         0.0000
   4151 C(8)       19.7947   44.9278    5.9575 C.3       1 UNK         0.0000
   4152 H(1)       23.2772   46.5105    3.9879 H         1 UNK         0.0000
   4153 H(2)       25.1801   48.0293    3.7064 H         1 UNK         0.0000
   4154 H(3)       24.5932   49.5343    7.6844 H         1 UNK         0.0000
   4155 H(4)       22.6755   48.0021    7.9634 H         1 UNK         0.0000
   4156 H(5)       26.3727   50.1063    6.2966 H         1 UNK         0.0000
   4157 H(6)       21.4670   46.2365    7.2155 H         1 UNK         0.0000
   4158 H(7)       20.0131   43.8973    5.8482 H         1 UNK         0.0000
   4159 H(8)       19.6429   45.1350    6.9849 H         1 UNK         0.0000
   4160 H(9)       18.9141   45.0922    5.3927 H         1 UNK         0.0000
   4161 O(1)       33.2944   46.5648   15.9746 O.3       1 UNK         0.0000
   4162 O(2)       28.3205   50.5093   14.6478 O.2       1 UNK         0.0000
   4163 N(1)       28.9715   49.9850   16.7595 N.am      1 UNK         0.0000
   4164 C(1)       30.0788   49.1451   16.5055 C.ar      1 UNK         0.0000
   4165 C(2)       30.8017   49.1432   15.3126 C.ar      1 UNK         0.0000
   4166 C(3)       31.8793   48.2765   15.1560 C.ar      1 UNK         0.0000
   4167 C(4)       32.2496   47.4143   16.1849 C.ar      1 UNK         0.0000
   4168 C(5)       31.5463   47.4380   17.3886 C.ar      1 UNK         0.0000
   4169 C(6)       30.4685   48.2980   17.5435 C.ar      1 UNK         0.0000
   4170 C(7)       28.1642   50.5872   15.8713 C.2       1 UNK         0.0000
   4171 C(8)       27.0407   51.3887   16.4723 C.3       1 UNK         0.0000
   4172 H(1)       30.5232   49.8060   14.5027 H         1 UNK         0.0000
   4173 H(2)       32.4261   48.2872   14.2212 H         1 UNK         0.0000
   4174 H(3)       31.8392   46.7822   18.1992 H         1 UNK         0.0000
   4175 H(4)       29.9216   48.3144   18.4782 H         1 UNK         0.0000
   4176 H(5)       33.6187   46.2102   16.8114 H         1 UNK         0.0000
   4177 H(6)       28.7130   50.0801   17.7302 H         1 UNK         0.0000
   4178 H(7)       27.2592   52.4192   16.3629 H         1 UNK         0.0000
   4179 H(8)       26.8889   51.1815   17.4996 H         1 UNK         0.0000
   4180 H(9)       26.1602   51.2243   15.9074 H         1 UNK         0.0000
   4181 O(1)       34.7398   41.9783   21.7753 O.3       1 UNK         0.0000
   4182 O(2)       39.7137   45.9228   23.1020 O.2       1 UNK         0.0000
   4183 N(1)       39.0626   45.3985   20.9903 N.am      1 UNK         0.0000
   4184 C(1)       37.9553   44.5586   21.2444 C.ar      1 UNK         0.0000
   4185 C(2)       37.2325   44.5567   22.4372 C.ar      1 UNK         0.0000
   4186 C(3)       36.1548   43.6900   22.5939 C.ar      1 UNK         0.0000
   4187 C(4)       35.7845   42.8278   21.5650 C.ar      1 UNK         0.0000
   4188 C(5)       36.4878   42.8515   20.3613 C.ar      1 UNK         0.0000
   4189 C(6)       37.5656   43.7115   20.2063 C.ar      1 UNK         0.0000
   4190 C(7)       39.8700   46.0007   21.8786 C.2       1 UNK         0.0000
   4191 C(8)       40.9934   46.8022   21.2776 C.3       1 UNK         0.0000
   4192 H(1)       37.5109   45.2195   23.2472 H         1 UNK         0.0000
   4193 H(2)       35.6080   43.7007   23.5287 H         1 UNK         0.0000
   4194 H(3)       36.1949   42.1957   19.5507 H         1 UNK         0.0000
   4195 H(4)       38.1126   43.7279   19.2717 H         1 UNK         0.0000
   4196 H(5)       34.4154   41.6237   20.9385 H         1 UNK         0.0000
   4197 H(6)       39.3211   45.4936   20.0196 H         1 UNK         0.0000
   4198 H(7)       40.7750   47.8327   21.3869 H         1 UNK         0.0000
   4199 H(8)       41.1452   46.5950   20.2502 H         1 UNK         0.0000
   4200 H(9)       41.8739   46.6378   21.8424 H         1 UNK         0.0000
   4201 O(1)       27.4937   54.3382   11.2605 O.3       1 UNK         0.0000
   4202 O(2)       32.4676   50.3937   12.5873 O.2       1 UNK         0.0000
   4203 N(1)       31.8166   50.9180   10.4756 N.am      1 UNK         0.0000
   4204 C(1)       30.7092   51.7579   10.7296 C.ar      1 UNK         0.0000
   4205 C(2)       29.9864   51.7598   11.9225 C.ar      1 UNK         0.0000
   4206 C(3)       28.9087   52.6265   12.0791 C.ar      1 UNK         0.0000
   4207 C(4)       28.5384   53.4887   11.0502 C.ar      1 UNK         0.0000
   4208 C(5)       29.2418   53.4650    9.8465 C.ar      1 UNK         0.0000
   4209 C(6)       30.3196   52.6050    9.6916 C.ar      1 UNK         0.0000
   4210 C(7)       32.6239   50.3158   11.3638 C.2       1 UNK         0.0000
   4211 C(8)       33.7474   49.5143   10.7628 C.3       1 UNK         0.0000
   4212 H(1)       30.2649   51.0970   12.7324 H         1 UNK         0.0000
   4213 H(2)       28.3620   52.6158   13.0139 H         1 UNK         0.0000
   4214 H(3)       28.9488   54.1208    9.0359 H         1 UNK         0.0000
   4215 H(4)       30.8665   52.5886    8.7569 H         1 UNK         0.0000
   4216 H(5)       27.1694   54.6928   10.4237 H         1 UNK         0.0000
   4217 H(6)       32.0751   50.8230    9.5049 H         1 UNK         0.0000
   4218 H(7)       33.5289   48.4838   10.8722 H         1 UNK         0.0000
   4219 H(8)       33.8991   49.7215    9.7355 H         1 UNK         0.0000
   4220 H(9)       34.6279   49.6787   11.3277 H         1 UNK         0.0000
   4221 O(1)       38.5950   49.7517   12.4697 O.3       1 UNK         0.0000
   4222 O(2)       33.6211   45.8072   11.1429 O.2       1 UNK         0.0000
   4223 N(1)       34.2722   46.3315   13.2546 N.am      1 UNK         0.0000
   4224 C(1)       35.3795   47.1714   13.0005 C.ar      1 UNK         0.0000
   4225 C(2)       36.1023   47.1733   11.8077 C.ar      1 UNK         0.0000
   4226 C(3)       37.1800   48.0400   11.6511 C.ar      1 UNK         0.0000
   4227 C(4)       37.5503   48.9022   12.6800 C.ar      1 UNK         0.0000
   4228 C(5)       36.8469   48.8785   13.8837 C.ar      1 UNK         0.0000
   4229 C(6)       35.7691   48.0185   14.0386 C.ar      1 UNK         0.0000
   4230 C(7)       33.4648   45.7293   12.3664 C.2       1 UNK         0.0000
   4231 C(8)       32.3414   44.9278   12.9673 C.3       1 UNK         0.0000
   4232 H(1)       35.8239   46.5105   10.9978 H         1 UNK         0.0000
   4233 H(2)       37.7268   48.0293   10.7162 H         1 UNK         0.0000
   4234 H(3)       37.1399   49.5343   14.6943 H         1 UNK         0.0000
   4235 H(4)       35.2222   48.0021   14.9733 H         1 UNK         0.0000
   4236 H(5)       38.9194   50.1063   13.3065 H         1 UNK         0.0000
   4237 H(6)       34.0137   46.2365   14.2253 H         1 UNK         0.0000
   4238 H(7)       32.5598   43.8973   12.8580 H         1 UNK         0.0000
   4239 H(8)       32.1896   45.1350   13.9947 H         1 UNK         0.0000
   4240 H(9)       31.4608   45.0922   12.4025 H         1 UNK         0.0000
   4241 O(1)       34.2671   46.5648    1.7534 O.3       1 UNK         0.0000
   4242 O(2)       29.2932   50.5093    0.4267 O.2       1 UNK         0.0000
   4243 N(1)       29.9442   49.9850    2.5384 N.am      1 UNK         0.0000
   4244 C(1)       31.0515   49.1451    2.2843 C.ar      1 UNK         0.0000
   4245 C(2)       31.7744   49.1432    1.0915 C.ar      1 UNK         0.0000
   4246 C(3)       32.8520   48.2765    0.9348 C.ar      1 UNK         0.0000
   4247 C(4)       33.2223   47.4143    1.9637 C.ar      1 UNK         0.0000
   4248 C(5)       32.5190   47.4380    3.1674 C.ar      1 UNK         0.0000
   4249 C(6)       31.4412   48.2980    3.3223 C.ar      1 UNK         0.0000
   4250 C(7)       29.1369   50.5872    1.6501 C.2       1 UNK         0.0000
   4251 C(8)       28.0134   51.3887    2.2511 C.3       1 UNK         0.0000
   4252 H(1)       31.4959   49.8060    0.2815 H         1 UNK         0.0000
   4253 H(2)       33.3988   48.2872    0.0000 H         1 UNK         0.0000
   4254 H(3)       32.8119   46.7822    3.9780 H         1 UNK         0.0000
   4255 H(4)       30.8943   48.3144    4.2570 H         1 UNK         0.0000
   4256 H(5)       34.5914   46.2102    2.5902 H         1 UNK         0.0000
   4257 H(6)       29.6857   50.0801    3.5091 H         1 UNK         0.0000
   4258 H(7)       28.2319   52.4192    2.1418 H         1 UNK         0.0000
   4259 H(8)       27.8616   51.1815    3.2785 H         1 UNK         0.0000
   4260 H(9)       27.1329   51.2243    1.6863 H         1 UNK         0.0000
   4261 O(1)       21.2204   41.9783    7.7556 O.3       1 UNK         0.0000
   4262 O(2)       26.1943   45.9228    9.0824 O.2       1 UNK         0.0000
   4263 N(1)       25.5432   45.3985    6.9707 N.am      1 UNK         0.0000
   4264 C(1)       24.4359   44.5586    7.2247 C.ar      1 UNK         0.0000
   4265 C(2)       23.7131   44.5567    8.4175 C.ar      1 UNK         0.0000
   4266 C(3)       22.6354   43.6900    8.5742 C.ar      1 UNK         0.0000
   4267 C(4)       22.2651   42.8278    7.5453 C.ar      1 UNK         0.0000
   4268 C(5)       22.9684   42.8515    6.3416 C.ar      1 UNK         0.0000
   4269 C(6)       24.0463   43.7115    6.1867 C.ar      1 UNK         0.0000
   4270 C(7)       26.3506   46.0007    7.8589 C.2       1 UNK         0.0000
   4271 C(8)       27.4740   46.8022    7.2579 C.3       1 UNK         0.0000
   4272 H(1)       23.9915   45.2195    9.2275 H         1 UNK         0.0000
   4273 H(2)       22.0886   43.7007    9.5090 H         1 UNK         0.0000
   4274 H(3)       22.6755   42.1957    5.5310 H         1 UNK         0.0000
   4275 H(4)       24.5932   43.7279    5.2520 H         1 UNK         0.0000
   4276 H(5)       20.8960   41.6237    6.9188 H         1 UNK         0.0000
   4277 H(6)       25.8017   45.4936    5.9999 H         1 UNK         0.0000
   4278 H(7)       27.2556   47.8327    7.3672 H         1 UNK         0.0000
   4279 H(8)       27.6258   46.5950    6.2305 H         1 UNK         0.0000
   4280 H(9)       28.3546   46.6378    7.8227 H         1 UNK         0.0000
   4281 O(1)       28.4664   45.1652   18.2703 O.3       1 UNK         0.0000
   4282 O(2)       33.4403   41.2207   19.5971 O.2       1 UNK         0.0000
   4283 N(1)       32.7893   41.7450   17.4854 N.am      1 UNK         0.0000
   4284 C(1)       31.6819   42.5849   17.7395 C.ar      1 UNK         0.0000
   4285 C(2)       30.9591   42.5868   18.9323 C.ar      1 UNK         0.0000
   4286 C(3)       29.8814   43.4535   19.0889 C.ar      1 UNK         0.0000
   4287 C(4)       29.5111   44.3157   18.0600 C.ar      1 UNK         0.0000
   4288 C(5)       30.2145   44.2920   16.8563 C.ar      1 UNK         0.0000
   4289 C(6)       31.2923   43.4320   16.7014 C.ar      1 UNK         0.0000
   4290 C(7)       33.5966   41.1428   18.3737 C.2       1 UNK         0.0000
   4291 C(8)       34.7201   40.3413   17.7727 C.3       1 UNK         0.0000
   4292 H(1)       31.2376   41.9240   19.7422 H         1 UNK         0.0000
   4293 H(2)       29.3347   43.4428   20.0238 H         1 UNK         0.0000
   4294 H(3)       29.9215   44.9478   16.0457 H         1 UNK         0.0000
   4295 H(4)       31.8392   43.4156   15.7668 H         1 UNK         0.0000
   4296 H(5)       28.1421   45.5198   17.4335 H         1 UNK         0.0000
   4297 H(6)       33.0478   41.6500   16.5147 H         1 UNK         0.0000
   4298 H(7)       34.5016   39.3108   17.8820 H         1 UNK         0.0000
   4299 H(8)       34.8718   40.5485   16.7453 H         1 UNK         0.0000
   4300 H(9)       35.6006   40.5057   18.3375 H         1 UNK         0.0000
   4301 O(1)       27.9937   49.7517   19.4795 O.3       1 UNK         0.0000
   4302 O(2)       23.0198   45.8072   18.1527 O.2       1 UNK         0.0000
   4303 N(1)       23.6709   46.3315   20.2644 N.am      1 UNK         0.0000
   4304 C(1)       24.7782   47.1714   20.0104 C.ar      1 UNK         0.0000
   4305 C(2)       25.5010   47.1733   18.8176 C.ar      1 UNK         0.0000
   4306 C(3)       26.5787   48.0400   18.6609 C.ar      1 UNK         0.0000
   4307 C(4)       26.9490   48.9022   19.6898 C.ar      1 UNK         0.0000
   4308 C(5)       26.2456   48.8785   20.8935 C.ar      1 UNK         0.0000
   4309 C(6)       25.1678   48.0185   21.0484 C.ar      1 UNK         0.0000
   4310 C(7)       22.8635   45.7293   19.3762 C.2       1 UNK         0.0000
   4311 C(8)       21.7401   44.9278   19.9772 C.3       1 UNK         0.0000
   4312 H(1)       25.2226   46.5105   18.0076 H         1 UNK         0.0000
   4313 H(2)       27.1254   48.0293   17.7261 H         1 UNK         0.0000
   4314 H(3)       26.5386   49.5343   21.7041 H         1 UNK         0.0000
   4315 H(4)       24.6209   48.0021   21.9831 H         1 UNK         0.0000
   4316 H(5)       28.3181   50.1063   20.3163 H         1 UNK         0.0000
   4317 H(6)       23.4124   46.2365   21.2352 H         1 UNK         0.0000
   4318 H(7)       21.9585   43.8973   19.8678 H         1 UNK         0.0000
   4319 H(8)       21.5883   45.1350   21.0046 H         1 UNK         0.0000
   4320 H(9)       20.8595   45.0922   19.4124 H         1 UNK         0.0000
   4321 O(1)       43.8957    0.6998    8.9648 O.3       1 UNK         0.0000
   4322 O(2)       38.9218    4.6443    7.6380 O.2       1 UNK         0.0000
   4323 N(1)       39.5728    4.1200    9.7497 N.am      1 UNK         0.0000
   4324 C(1)       40.6801    3.2801    9.4956 C.ar      1 UNK         0.0000
   4325 C(2)       41.4030    3.2782    8.3028 C.ar      1 UNK         0.0000
   4326 C(3)       42.4806    2.4115    8.1462 C.ar      1 UNK         0.0000
   4327 C(4)       42.8510    1.5493    9.1751 C.ar      1 UNK         0.0000
   4328 C(5)       42.1476    1.5730   10.3788 C.ar      1 UNK         0.0000
   4329 C(6)       41.0698    2.4330   10.5337 C.ar      1 UNK         0.0000
   4330 C(7)       38.7655    4.7222    8.8614 C.2       1 UNK         0.0000
   4331 C(8)       37.6420    5.5237    9.4624 C.3       1 UNK         0.0000
   4332 H(1)       41.1245    3.9410    7.4929 H         1 UNK         0.0000
   4333 H(2)       43.0274    2.4222    7.2113 H         1 UNK         0.0000
   4334 H(3)       42.4406    0.9172   11.1894 H         1 UNK         0.0000
   4335 H(4)       40.5229    2.4494   11.4683 H         1 UNK         0.0000
   4336 H(5)       44.2200    0.3452    9.8016 H         1 UNK         0.0000
   4337 H(6)       39.3143    4.2150   10.7204 H         1 UNK         0.0000
   4338 H(7)       37.8605    6.5542    9.3531 H         1 UNK         0.0000
   4339 H(8)       37.4903    5.3165   10.4898 H         1 UNK         0.0000
   4340 H(9)       36.7615    5.3593    8.8976 H         1 UNK         0.0000
   4341 O(1)       33.7671   -3.8867   14.7654 O.3       1 UNK         0.0000
   4342 O(2)       38.7410    0.0578   16.0922 O.2       1 UNK         0.0000
   4343 N(1)       38.0899   -0.4665   13.9805 N.am      1 UNK         0.0000
   4344 C(1)       36.9826   -1.3064   14.2346 C.ar      1 UNK         0.0000
   4345 C(2)       36.2598   -1.3083   15.4274 C.ar      1 UNK         0.0000
   4346 C(3)       35.1821   -2.1750   15.5840 C.ar      1 UNK         0.0000
   4347 C(4)       34.8118   -3.0372   14.5551 C.ar      1 UNK         0.0000
   4348 C(5)       35.5151   -3.0135   13.3514 C.ar      1 UNK         0.0000
   4349 C(6)       36.5930   -2.1535   13.1965 C.ar      1 UNK         0.0000
   4350 C(7)       38.8973    0.1357   14.8687 C.2       1 UNK         0.0000
   4351 C(8)       40.0207    0.9372   14.2678 C.3       1 UNK         0.0000
   4352 H(1)       36.5382   -0.6455   16.2373 H         1 UNK         0.0000
   4353 H(2)       34.6353   -2.1643   16.5188 H         1 UNK         0.0000
   4354 H(3)       35.2222   -3.6693   12.5408 H         1 UNK         0.0000
   4355 H(4)       37.1399   -2.1371   12.2618 H         1 UNK         0.0000
   4356 H(5)       33.4427   -4.2413   13.9286 H         1 UNK         0.0000
   4357 H(6)       38.3484   -0.3715   13.0098 H         1 UNK         0.0000
   4358 H(7)       39.8023    1.9677   14.3771 H         1 UNK         0.0000
   4359 H(8)       40.1725    0.7300   13.2404 H         1 UNK         0.0000
   4360 H(9)       40.9012    0.7728   14.8326 H         1 UNK         0.0000
   4361 O(1)       38.0950    8.4732    4.2507 O.3       1 UNK         0.0000
   4362 O(2)       43.0689    4.5287    5.5774 O.2       1 UNK         0.0000
   4363 N(1)       42.4179    5.0530    3.4657 N.am      1 UNK         0.0000
   4364 C(1)       41.3106    5.8929    3.7198 C.ar      1 UNK         0.0000
   4365 C(2)       40.5877    5.8948    4.9126 C.ar      1 UNK         0.0000
   4366 C(3)       39.5101    6.7615    5.0693 C.ar      1 UNK         0.0000
   4367 C(4)       39.1397    7.6237    4.0404 C.ar      1 UNK         0.0000
   4368 C(5)       39.8431    7.6000    2.8367 C.ar      1 UNK         0.0000
   4369 C(6)       40.9209    6.7400    2.6817 C.ar      1 UNK         0.0000
   4370 C(7)       43.2252    4.4508    4.3540 C.2       1 UNK         0.0000
   4371 C(8)       44.3487    3.6493    3.7530 C.3       1 UNK         0.0000
   4372 H(1)       40.8662    5.2320    5.7226 H         1 UNK         0.0000
   4373 H(2)       38.9633    6.7508    6.0041 H         1 UNK         0.0000
   4374 H(3)       39.5501    8.2558    2.0261 H         1 UNK         0.0000
   4375 H(4)       41.4678    6.7236    1.7471 H         1 UNK         0.0000
   4376 H(5)       37.7707    8.8278    3.4139 H         1 UNK         0.0000
   4377 H(6)       42.6764    4.9580    2.4950 H         1 UNK         0.0000
   4378 H(7)       44.1302    2.6188    3.8623 H         1 UNK         0.0000
   4379 H(8)       44.5004    3.8565    2.7256 H         1 UNK         0.0000
   4380 H(9)       45.2292    3.8137    4.3178 H         1 UNK         0.0000
   4381 O(1)       37.6223    3.8867    5.4598 O.3       1 UNK         0.0000
   4382 O(2)       32.6484   -0.0578    4.1331 O.2       1 UNK         0.0000
   4383 N(1)       33.2995    0.4665    6.2448 N.am      1 UNK         0.0000
   4384 C(1)       34.4068    1.3064    5.9907 C.ar      1 UNK         0.0000
   4385 C(2)       35.1296    1.3083    4.7979 C.ar      1 UNK         0.0000
   4386 C(3)       36.2073    2.1750    4.6412 C.ar      1 UNK         0.0000
   4387 C(4)       36.5776    3.0372    5.6701 C.ar      1 UNK         0.0000
   4388 C(5)       35.8743    3.0135    6.8738 C.ar      1 UNK         0.0000
   4389 C(6)       34.7964    2.1535    7.0288 C.ar      1 UNK         0.0000
   4390 C(7)       32.4921   -0.1357    5.3565 C.2       1 UNK         0.0000
   4391 C(8)       31.3687   -0.9372    5.9575 C.3       1 UNK         0.0000
   4392 H(1)       34.8512    0.6455    3.9879 H         1 UNK         0.0000
   4393 H(2)       36.7541    2.1643    3.7064 H         1 UNK         0.0000
   4394 H(3)       36.1672    3.6693    7.6844 H         1 UNK         0.0000
   4395 H(4)       34.2495    2.1371    7.9634 H         1 UNK         0.0000
   4396 H(5)       37.9467    4.2413    6.2966 H         1 UNK         0.0000
   4397 H(6)       33.0410    0.3715    7.2155 H         1 UNK         0.0000
   4398 H(7)       31.5871   -1.9677    5.8482 H         1 UNK         0.0000
   4399 H(8)       31.2169   -0.7300    6.9849 H         1 UNK         0.0000
   4400 H(9)       30.4881   -0.7728    5.3927 H         1 UNK         0.0000
   4401 O(1)       44.8684    0.6998   15.9746 O.3       1 UNK         0.0000
   4402 O(2)       39.8945    4.6443   14.6478 O.2       1 UNK         0.0000
   4403 N(1)       40.5455    4.1200   16.7595 N.am      1 UNK         0.0000
   4404 C(1)       41.6528    3.2801   16.5055 C.ar      1 UNK         0.0000
   4405 C(2)       42.3757    3.2782   15.3126 C.ar      1 UNK         0.0000
   4406 C(3)       43.4533    2.4115   15.1560 C.ar      1 UNK         0.0000
   4407 C(4)       43.8236    1.5493   16.1849 C.ar      1 UNK         0.0000
   4408 C(5)       43.1203    1.5730   17.3886 C.ar      1 UNK         0.0000
   4409 C(6)       42.0425    2.4330   17.5435 C.ar      1 UNK         0.0000
   4410 C(7)       39.7382    4.7222   15.8713 C.2       1 UNK         0.0000
   4411 C(8)       38.6147    5.5237   16.4723 C.3       1 UNK         0.0000
   4412 H(1)       42.0972    3.9410   14.5027 H         1 UNK         0.0000
   4413 H(2)       44.0001    2.4222   14.2212 H         1 UNK         0.0000
   4414 H(3)       43.4132    0.9172   18.1992 H         1 UNK         0.0000
   4415 H(4)       41.4956    2.4494   18.4782 H         1 UNK         0.0000
   4416 H(5)       45.1927    0.3452   16.8114 H         1 UNK         0.0000
   4417 H(6)       40.2870    4.2150   17.7302 H         1 UNK         0.0000
   4418 H(7)       38.8332    6.5542   16.3629 H         1 UNK         0.0000
   4419 H(8)       38.4629    5.3165   17.4996 H         1 UNK         0.0000
   4420 H(9)       37.7342    5.3593   15.9074 H         1 UNK         0.0000
   4421 O(1)       46.3138   -3.8867   21.7753 O.3       1 UNK         0.0000
   4422 O(2)       51.2877    0.0578   23.1020 O.2       1 UNK         0.0000
   4423 N(1)       50.6366   -0.4665   20.9903 N.am      1 UNK         0.0000
   4424 C(1)       49.5293   -1.3064   21.2444 C.ar      1 UNK         0.0000
   4425 C(2)       48.8065   -1.3083   22.4372 C.ar      1 UNK         0.0000
   4426 C(3)       47.7288   -2.1750   22.5939 C.ar      1 UNK         0.0000
   4427 C(4)       47.3585   -3.0372   21.5650 C.ar      1 UNK         0.0000
   4428 C(5)       48.0618   -3.0135   20.3613 C.ar      1 UNK         0.0000
   4429 C(6)       49.1396   -2.1535   20.2063 C.ar      1 UNK         0.0000
   4430 C(7)       51.4440    0.1357   21.8786 C.2       1 UNK         0.0000
   4431 C(8)       52.5674    0.9372   21.2776 C.3       1 UNK         0.0000
   4432 H(1)       49.0849   -0.6455   23.2472 H         1 UNK         0.0000
   4433 H(2)       47.1820   -2.1643   23.5287 H         1 UNK         0.0000
   4434 H(3)       47.7689   -3.6693   19.5507 H         1 UNK         0.0000
   4435 H(4)       49.6866   -2.1371   19.2717 H         1 UNK         0.0000
   4436 H(5)       45.9894   -4.2413   20.9385 H         1 UNK         0.0000
   4437 H(6)       50.8951   -0.3715   20.0196 H         1 UNK         0.0000
   4438 H(7)       52.3490    1.9677   21.3869 H         1 UNK         0.0000
   4439 H(8)       52.7192    0.7300   20.2502 H         1 UNK         0.0000
   4440 H(9)       53.4479    0.7728   21.8424 H         1 UNK         0.0000
   4441 O(1)       39.0677    8.4732   11.2605 O.3       1 UNK         0.0000
   4442 O(2)       44.0416    4.5287   12.5873 O.2       1 UNK         0.0000
   4443 N(1)       43.3906    5.0530   10.4756 N.am      1 UNK         0.0000
   4444 C(1)       42.2832    5.8929   10.7296 C.ar      1 UNK         0.0000
   4445 C(2)       41.5604    5.8948   11.9225 C.ar      1 UNK         0.0000
   4446 C(3)       40.4827    6.7615   12.0791 C.ar      1 UNK         0.0000
   4447 C(4)       40.1124    7.6237   11.0502 C.ar      1 UNK         0.0000
   4448 C(5)       40.8158    7.6000    9.8465 C.ar      1 UNK         0.0000
   4449 C(6)       41.8936    6.7400    9.6916 C.ar      1 UNK         0.0000
   4450 C(7)       44.1979    4.4508   11.3638 C.2       1 UNK         0.0000
   4451 C(8)       45.3214    3.6493   10.7628 C.3       1 UNK         0.0000
   4452 H(1)       41.8389    5.2320   12.7324 H         1 UNK         0.0000
   4453 H(2)       39.9360    6.7508   13.0139 H         1 UNK         0.0000
   4454 H(3)       40.5228    8.2558    9.0359 H         1 UNK         0.0000
   4455 H(4)       42.4405    6.7236    8.7569 H         1 UNK         0.0000
   4456 H(5)       38.7434    8.8278   10.4237 H         1 UNK         0.0000
   4457 H(6)       43.6491    4.9580    9.5049 H         1 UNK         0.0000
   4458 H(7)       45.1029    2.6188   10.8722 H         1 UNK         0.0000
   4459 H(8)       45.4731    3.8565    9.7355 H         1 UNK         0.0000
   4460 H(9)       46.2019    3.8137   11.3277 H         1 UNK         0.0000
   4461 O(1)       50.1690    3.8867   12.4697 O.3       1 UNK         0.0000
   4462 O(2)       45.1951   -0.0578   11.1429 O.2       1 UNK         0.0000
   4463 N(1)       45.8462    0.4665   13.2546 N.am      1 UNK         0.0000
   4464 C(1)       46.9535    1.3064   13.0005 C.ar      1 UNK         0.0000
   4465 C(2)       47.6763    1.3083   11.8077 C.ar      1 UNK         0.0000
   4466 C(3)       48.7540    2.1750   11.6511 C.ar      1 UNK         0.0000
   4467 C(4)       49.1243    3.0372   12.6800 C.ar      1 UNK         0.0000
   4468 C(5)       48.4209    3.0135   13.8837 C.ar      1 UNK         0.0000
   4469 C(6)       47.3431    2.1535   14.0386 C.ar      1 UNK         0.0000
   4470 C(7)       45.0388   -0.1357   12.3664 C.2       1 UNK         0.0000
   4471 C(8)       43.9154   -0.9372   12.9673 C.3       1 UNK         0.0000
   4472 H(1)       47.3979    0.6455   10.9978 H         1 UNK         0.0000
   4473 H(2)       49.3008    2.1643   10.7162 H         1 UNK         0.0000
   4474 H(3)       48.7139    3.6693   14.6943 H         1 UNK         0.0000
   4475 H(4)       46.7962    2.1371   14.9733 H         1 UNK         0.0000
   4476 H(5)       50.4934    4.2413   13.3065 H         1 UNK         0.0000
   4477 H(6)       45.5877    0.3715   14.2253 H         1 UNK         0.0000
   4478 H(7)       44.1338   -1.9677   12.8580 H         1 UNK         0.0000
   4479 H(8)       43.7636   -0.7300   13.9947 H         1 UNK         0.0000
   4480 H(9)       43.0348   -0.7728   12.4025 H         1 UNK         0.0000
   4481 O(1)       45.8411    0.6998    1.7534 O.3       1 UNK         0.0000
   4482 O(2)       40.8672    4.6443    0.4267 O.2       1 UNK         0.0000
   4483 N(1)       41.5182    4.1200    2.5384 N.am      1 UNK         0.0000
   4484 C(1)       42.6255    3.2801    2.2843 C.ar      1 UNK         0.0000
   4485 C(2)       43.3484    3.2782    1.0915 C.ar      1 UNK         0.0000
   4486 C(3)       44.4260    2.4115    0.9348 C.ar      1 UNK         0.0000
   4487 C(4)       44.7963    1.5493    1.9637 C.ar      1 UNK         0.0000
   4488 C(5)       44.0930    1.5730    3.1674 C.ar      1 UNK         0.0000
   4489 C(6)       43.0152    2.4330    3.3223 C.ar      1 UNK         0.0000
   4490 C(7)       40.7109    4.7222    1.6501 C.2       1 UNK         0.0000
   4491 C(8)       39.5874    5.5237    2.2511 C.3       1 UNK         0.0000
   4492 H(1)       43.0699    3.9410    0.2815 H         1 UNK         0.0000
   4493 H(2)       44.9728    2.4222    0.0000 H         1 UNK         0.0000
   4494 H(3)       44.3859    0.9172    3.9780 H         1 UNK         0.0000
   4495 H(4)       42.4683    2.4494    4.2570 H         1 UNK         0.0000
   4496 H(5)       46.1654    0.3452    2.5902 H         1 UNK         0.0000
   4497 H(6)       41.2597    4.2150    3.5091 H         1 UNK         0.0000
   4498 H(7)       39.8059    6.5542    2.1418 H         1 UNK         0.0000
   4499 H(8)       39.4356    5.3165    3.2785 H         1 UNK         0.0000
   4500 H(9)       38.7069    5.3593    1.6863 H         1 UNK         0.0000
   4501 O(1)       32.7944   -3.8867    7.7556 O.3       1 UNK         0.0000
   4502 O(2)       37.7683    0.0578    9.0824 O.2       1 UNK         0.0000
   4503 N(1)       37.1172   -0.4665    6.9707 N.am      1 UNK         0.0000
   4504 C(1)       36.0099   -1.3064    7.2247 C.ar      1 UNK         0.0000
   4505 C(2)       35.2871   -1.3083    8.4175 C.ar      1 UNK         0.0000
   4506 C(3)       34.2094   -2.1750    8.5742 C.ar      1 UNK         0.0000
   4507 C(4)       33.8391   -3.0372    7.5453 C.ar      1 UNK         0.0000
   4508 C(5)       34.5424   -3.0135    6.3416 C.ar      1 UNK         0.0000
   4509 C(6)       35.6203   -2.1535    6.1867 C.ar      1 UNK         0.0000
   4510 C(7)       37.9246    0.1357    7.8589 C.2       1 UNK         0.0000
   4511 C(8)       39.0480    0.9372    7.2579 C.3       1 UNK         0.0000
   4512 H(1)       35.5655   -0.6455    9.2275 H         1 UNK         0.0000
   4513 H(2)       33.6626   -2.1643    9.5090 H         1 UNK         0.0000
   4514 H(3)       34.2495   -3.6693    5.5310 H         1 UNK         0.0000
   4515 H(4)       36.1672   -2.1371    5.2520 H         1 UNK         0.0000
   4516 H(5)       32.4700   -4.2413    6.9188 H         1 UNK         0.0000
   4517 H(6)       37.3757   -0.3715    5.9999 H         1 UNK         0.0000
   4518 H(7)       38.8296    1.9677    7.3672 H         1 UNK         0.0000
   4519 H(8)       39.1998    0.7300    6.2305 H         1 UNK         0.0000
   4520 H(9)       39.9286    0.7728    7.8227 H         1 UNK         0.0000
   4521 O(1)       40.0404   -0.6998   18.2703 O.3       1 UNK         0.0000
   4522 O(2)       45.0143   -4.6443   19.5971 O.2       1 UNK         0.0000
   4523 N(1)       44.3633   -4.1200   17.4854 N.am      1 UNK         0.0000
   4524 C(1)       43.2559   -3.2801   17.7395 C.ar      1 UNK         0.0000
   4525 C(2)       42.5331   -3.2782   18.9323 C.ar      1 UNK         0.0000
   4526 C(3)       41.4554   -2.4115   19.0889 C.ar      1 UNK         0.0000
   4527 C(4)       41.0851   -1.5493   18.0600 C.ar      1 UNK         0.0000
   4528 C(5)       41.7885   -1.5730   16.8563 C.ar      1 UNK         0.0000
   4529 C(6)       42.8663   -2.4330   16.7014 C.ar      1 UNK         0.0000
   4530 C(7)       45.1706   -4.7222   18.3737 C.2       1 UNK         0.0000
   4531 C(8)       46.2941   -5.5237   17.7727 C.3       1 UNK         0.0000
   4532 H(1)       42.8116   -3.9410   19.7422 H         1 UNK         0.0000
   4533 H(2)       40.9087   -2.4222   20.0238 H         1 UNK         0.0000
   4534 H(3)       41.4955   -0.9172   16.0457 H         1 UNK         0.0000
   4535 H(4)       43.4132   -2.4494   15.7668 H         1 UNK         0.0000
   4536 H(5)       39.7161   -0.3452   17.4335 H         1 UNK         0.0000
   4537 H(6)       44.6218   -4.2150   16.5147 H         1 UNK         0.0000
   4538 H(7)       46.0756   -6.5542   17.8820 H         1 UNK         0.0000
   4539 H(8)       46.4458   -5.3165   16.7453 H         1 UNK         0.0000
   4540 H(9)       47.1746   -5.3593   18.3375 H         1 UNK         0.0000
   4541 O(1)       39.5677    3.8867   19.4795 O.3       1 UNK         0.0000
   4542 O(2)       34.5938   -0.0578   18.1527 O.2       1 UNK         0.0000
   4543 N(1)       35.2449    0.4665   20.2644 N.am      1 UNK         0.0000
   4544 C(1)       36.3522    1.3064   20.0104 C.ar      1 UNK         0.0000
   4545 C(2)       37.0750    1.3083   18.8176 C.ar      1 UNK         0.0000
   4546 C(3)       38.1527    2.1750   18.6609 C.ar      1 UNK         0.0000
   4547 C(4)       38.5230    3.0372   19.6898 C.ar      1 UNK         0.0000
   4548 C(5)       37.8196    3.0135   20.8935 C.ar      1 UNK         0.0000
   4549 C(6)       36.7418    2.1535   21.0484 C.ar      1 UNK         0.0000
   4550 C(7)       34.4375   -0.1357   19.3762 C.2       1 UNK         0.0000
   4551 C(8)       33.3141   -0.9372   19.9772 C.3       1 UNK         0.0000
   4552 H(1)       36.7966    0.6455   18.0076 H         1 UNK         0.0000
   4553 H(2)       38.6994    2.1643   17.7261 H         1 UNK         0.0000
   4554 H(3)       38.1126    3.6693   21.7041 H         1 UNK         0.0000
   4555 H(4)       36.1949    2.1371   21.9831 H         1 UNK         0.0000
   4556 H(5)       39.8921    4.2413   20.3163 H         1 UNK         0.0000
   4557 H(6)       34.9864    0.3715   21.2352 H         1 UNK         0.0000
   4558 H(7)       33.5325   -1.9677   19.8678 H         1 UNK         0.0000
   4559 H(8)       33.1623   -0.7300   21.0046 H         1 UNK         0.0000
   4560 H(9)       32.4335   -0.7728   19.4124 H         1 UNK         0.0000
   4561 O(1)       43.8957    9.8728    8.9648 O.3       1 UNK         0.0000
   4562 O(2)       38.9218   13.8173    7.6380 O.2       1 UNK         0.0000
   4563 N(1)       39.5728   13.2930    9.7497 N.am      1 UNK         0.0000
   4564 C(1)       40.6801   12.4531    9.4956 C.ar      1 UNK         0.0000
   4565 C(2)       41.4030   12.4512    8.3028 C.ar      1 UNK         0.0000
   4566 C(3)       42.4806   11.5845    8.1462 C.ar      1 UNK         0.0000
   4567 C(4)       42.8510   10.7223    9.1751 C.ar      1 UNK         0.0000
   4568 C(5)       42.1476   10.7460   10.3788 C.ar      1 UNK         0.0000
   4569 C(6)       41.0698   11.6060   10.5337 C.ar      1 UNK         0.0000
   4570 C(7)       38.7655   13.8952    8.8614 C.2       1 UNK         0.0000
   4571 C(8)       37.6420   14.6967    9.4624 C.3       1 UNK         0.0000
   4572 H(1)       41.1245   13.1140    7.4929 H         1 UNK         0.0000
   4573 H(2)       43.0274   11.5952    7.2113 H         1 UNK         0.0000
   4574 H(3)       42.4406   10.0902   11.1894 H         1 UNK         0.0000
   4575 H(4)       40.5229   11.6224   11.4683 H         1 UNK         0.0000
   4576 H(5)       44.2200    9.5182    9.8016 H         1 UNK         0.0000
   4577 H(6)       39.3143   13.3880   10.7204 H         1 UNK         0.0000
   4578 H(7)       37.8605   15.7272    9.3531 H         1 UNK         0.0000
   4579 H(8)       37.4903   14.4895   10.4898 H         1 UNK         0.0000
   4580 H(9)       36.7615   14.5323    8.8976 H         1 UNK         0.0000
   4581 O(1)       33.7671    5.2863   14.7654 O.3       1 UNK         0.0000
   4582 O(2)       38.7410    9.2308   16.0922 O.2       1 UNK         0.0000
   4583 N(1)       38.0899    8.7065   13.9805 N.am      1 UNK         0.0000
   4584 C(1)       36.9826    7.8666   14.2346 C.ar      1 UNK         0.0000
   4585 C(2)       36.2598    7.8647   15.4274 C.ar      1 UNK         0.0000
   4586 C(3)       35.1821    6.9980   15.5840 C.ar      1 UNK         0.0000
   4587 C(4)       34.8118    6.1358   14.5551 C.ar      1 UNK         0.0000
   4588 C(5)       35.5151    6.1595   13.3514 C.ar      1 UNK         0.0000
   4589 C(6)       36.5930    7.0195   13.1965 C.ar      1 UNK         0.0000
   4590 C(7)       38.8973    9.3087   14.8687 C.2       1 UNK         0.0000
   4591 C(8)       40.0207   10.1102   14.2678 C.3       1 UNK         0.0000
   4592 H(1)       36.5382    8.5275   16.2373 H         1 UNK         0.0000
   4593 H(2)       34.6353    7.0087   16.5188 H         1 UNK         0.0000
   4594 H(3)       35.2222    5.5037   12.5408 H         1 UNK         0.0000
   4595 H(4)       37.1399    7.0359   12.2618 H         1 UNK         0.0000
   4596 H(5)       33.4427    4.9317   13.9286 H         1 UNK         0.0000
   4597 H(6)       38.3484    8.8015   13.0098 H         1 UNK         0.0000
   4598 H(7)       39.8023   11.1407   14.3771 H         1 UNK         0.0000
   4599 H(8)       40.1725    9.9030   13.2404 H         1 UNK         0.0000
   4600 H(9)       40.9012    9.9458   14.8326 H         1 UNK         0.0000
   4601 O(1)       38.0950   17.6462    4.2507 O.3       1 UNK         0.0000
   4602 O(2)       43.0689   13.7017    5.5774 O.2       1 UNK         0.0000
   4603 N(1)       42.4179   14.2260    3.4657 N.am      1 UNK         0.0000
   4604 C(1)       41.3106   15.0659    3.7198 C.ar      1 UNK         0.0000
   4605 C(2)       40.5877   15.0678    4.9126 C.ar      1 UNK         0.0000
   4606 C(3)       39.5101   15.9345    5.0693 C.ar      1 UNK         0.0000
   4607 C(4)       39.1397   16.7967    4.0404 C.ar      1 UNK         0.0000
   4608 C(5)       39.8431   16.7730    2.8367 C.ar      1 UNK         0.0000
   4609 C(6)       40.9209   15.9130    2.6817 C.ar      1 UNK         0.0000
   4610 C(7)       43.2252   13.6238    4.3540 C.2       1 UNK         0.0000
   4611 C(8)       44.3487   12.8223    3.7530 C.3       1 UNK         0.0000
   4612 H(1)       40.8662   14.4050    5.7226 H         1 UNK         0.0000
   4613 H(2)       38.9633   15.9238    6.0041 H         1 UNK         0.0000
   4614 H(3)       39.5501   17.4288    2.0261 H         1 UNK         0.0000
   4615 H(4)       41.4678   15.8966    1.7471 H         1 UNK         0.0000
   4616 H(5)       37.7707   18.0008    3.4139 H         1 UNK         0.0000
   4617 H(6)       42.6764   14.1310    2.4950 H         1 UNK         0.0000
   4618 H(7)       44.1302   11.7918    3.8623 H         1 UNK         0.0000
   4619 H(8)       44.5004   13.0295    2.7256 H         1 UNK         0.0000
   4620 H(9)       45.2292   12.9867    4.3178 H         1 UNK         0.0000
   4621 O(1)       37.6223   13.0597    5.4598 O.3       1 UNK         0.0000
   4622 O(2)       32.6484    9.1152    4.1331 O.2       1 UNK         0.0000
   4623 N(1)       33.2995    9.6395    6.2448 N.am      1 UNK         0.0000
   4624 C(1)       34.4068   10.4794    5.9907 C.ar      1 UNK         0.0000
   4625 C(2)       35.1296   10.4813    4.7979 C.ar      1 UNK         0.0000
   4626 C(3)       36.2073   11.3480    4.6412 C.ar      1 UNK         0.0000
   4627 C(4)       36.5776   12.2102    5.6701 C.ar      1 UNK         0.0000
   4628 C(5)       35.8743   12.1865    6.8738 C.ar      1 UNK         0.0000
   4629 C(6)       34.7964   11.3265    7.0288 C.ar      1 UNK         0.0000
   4630 C(7)       32.4921    9.0373    5.3565 C.2       1 UNK         0.0000
   4631 C(8)       31.3687    8.2358    5.9575 C.3       1 UNK         0.0000
   4632 H(1)       34.8512    9.8185    3.9879 H         1 UNK         0.0000
   4633 H(2)       36.7541   11.3373    3.7064 H         1 UNK         0.0000
   4634 H(3)       36.1672   12.8423    7.6844 H         1 UNK         0.0000
   4635 H(4)       34.2495   11.3101    7.9634 H         1 UNK         0.0000
   4636 H(5)       37.9467   13.4143    6.2966 H         1 UNK         0.0000
   4637 H(6)       33.0410    9.5445    7.2155 H         1 UNK         0.0000
   4638 H(7)       31.5871    7.2053    5.8482 H         1 UNK         0.0000
   4639 H(8)       31.2169    8.4430    6.9849 H         1 UNK         0.0000
   4640 H(9)       30.4881    8.4002    5.3927 H         1 UNK         0.0000
   4641 O(1)       44.8684    9.8728   15.9746 O.3       1 UNK         0.0000
   4642 O(2)       39.8945   13.8173   14.6478 O.2       1 UNK         0.0000
   4643 N(1)       40.5455   13.2930   16.7595 N.am      1 UNK         0.0000
   4644 C(1)       41.6528   12.4531   16.5055 C.ar      1 UNK         0.0000
   4645 C(2)       42.3757   12.4512   15.3126 C.ar      1 UNK         0.0000
   4646 C(3)       43.4533   11.5845   15.1560 C.ar      1 UNK         0.0000
   4647 C(4)       43.8236   10.7223   16.1849 C.ar      1 UNK         0.0000
   4648 C(5)       43.1203   10.7460   17.3886 C.ar      1 UNK         0.0000
   4649 C(6)       42.0425   11.6060   17.5435 C.ar      1 UNK         0.0000
   4650 C(7)       39.7382   13.8952   15.8713 C.2       1 UNK         0.0000
   4651 C(8)       38.6147   14.6967   16.4723 C.3       1 UNK         0.0000
   4652 H(1)       42.0972   13.1140   14.5027 H         1 UNK         0.0000
   4653 H(2)       44.0001   11.5952   14.2212 H         1 UNK         0.0000
   4654 H(3)       43.4132   10.0902   18.1992 H         1 UNK         0.0000
   4655 H(4)       41.4956   11.6224   18.4782 H         1 UNK         0.0000
   4656 H(5)       45.1927    9.5182   16.8114 H         1 UNK         0.0000
   4657 H(6)       40.2870   13.3880   17.7302 H         1 UNK         0.0000
   4658 H(7)       38.8332   15.7272   16.3629 H         1 UNK         0.0000
   4659 H(8)       38.4629   14.4895   17.4996 H         1 UNK         0.0000
   4660 H(9)       37.7342   14.5323   15.9074 H         1 UNK         0.0000
   4661 O(1)       46.3138    5.2863   21.7753 O.3       1 UNK         0.0000
   4662 O(2)       51.2877    9.2308   23.1020 O.2       1 UNK         0.0000
   4663 N(1)       50.6366    8.7065   20.9903 N.am      1 UNK         0.0000
   4664 C(1)       49.5293    7.8666   21.2444 C.ar      1 UNK         0.0000
   4665 C(2)       48.8065    7.8647   22.4372 C.ar      1 UNK         0.0000
   4666 C(3)       47.7288    6.9980   22.5939 C.ar      1 UNK         0.0000
   4667 C(4)       47.3585    6.1358   21.5650 C.ar      1 UNK         0.0000
   4668 C(5)       48.0618    6.1595   20.3613 C.ar      1 UNK         0.0000
   4669 C(6)       49.1396    7.0195   20.2063 C.ar      1 UNK         0.0000
   4670 C(7)       51.4440    9.3087   21.8786 C.2       1 UNK         0.0000
   4671 C(8)       52.5674   10.1102   21.2776 C.3       1 UNK         0.0000
   4672 H(1)       49.0849    8.5275   23.2472 H         1 UNK         0.0000
   4673 H(2)       47.1820    7.0087   23.5287 H         1 UNK         0.0000
   4674 H(3)       47.7689    5.5037   19.5507 H         1 UNK         0.0000
   4675 H(4)       49.6866    7.0359   19.2717 H         1 UNK         0.0000
   4676 H(5)       45.9894    4.9317   20.9385 H         1 UNK         0.0000
   4677 H(6)       50.8951    8.8015   20.0196 H         1 UNK         0.0000
   4678 H(7)       52.3490   11.1407   21.3869 H         1 UNK         0.0000
   4679 H(8)       52.7192    9.9030   20.2502 H         1 UNK         0.0000
   4680 H(9)       53.4479    9.9458   21.8424 H         1 UNK         0.0000
   4681 O(1)       39.0677   17.6462   11.2605 O.3       1 UNK         0.0000
   4682 O(2)       44.0416   13.7017   12.5873 O.2       1 UNK         0.0000
   4683 N(1)       43.3906   14.2260   10.4756 N.am      1 UNK         0.0000
   4684 C(1)       42.2832   15.0659   10.7296 C.ar      1 UNK         0.0000
   4685 C(2)       41.5604   15.0678   11.9225 C.ar      1 UNK         0.0000
   4686 C(3)       40.4827   15.9345   12.0791 C.ar      1 UNK         0.0000
   4687 C(4)       40.1124   16.7967   11.0502 C.ar      1 UNK         0.0000
   4688 C(5)       40.8158   16.7730    9.8465 C.ar      1 UNK         0.0000
   4689 C(6)       41.8936   15.9130    9.6916 C.ar      1 UNK         0.0000
   4690 C(7)       44.1979   13.6238   11.3638 C.2       1 UNK         0.0000
   4691 C(8)       45.3214   12.8223   10.7628 C.3       1 UNK         0.0000
   4692 H(1)       41.8389   14.4050   12.7324 H         1 UNK         0.0000
   4693 H(2)       39.9360   15.9238   13.0139 H         1 UNK         0.0000
   4694 H(3)       40.5228   17.4288    9.0359 H         1 UNK         0.0000
   4695 H(4)       42.4405   15.8966    8.7569 H         1 UNK         0.0000
   4696 H(5)       38.7434   18.0008   10.4237 H         1 UNK         0.0000
   4697 H(6)       43.6491   14.1310    9.5049 H         1 UNK         0.0000
   4698 H(7)       45.1029   11.7918   10.8722 H         1 UNK         0.0000
   4699 H(8)       45.4731   13.0295    9.7355 H         1 UNK         0.0000
   4700 H(9)       46.2019   12.9867   11.3277 H         1 UNK         0.0000
   4701 O(1)       50.1690   13.0597   12.4697 O.3       1 UNK         0.0000
   4702 O(2)       45.1951    9.1152   11.1429 O.2       1 UNK         0.0000
   4703 N(1)       45.8462    9.6395   13.2546 N.am      1 UNK         0.0000
   4704 C(1)       46.9535   10.4794   13.0005 C.ar      1 UNK         0.0000
   4705 C(2)       47.6763   10.4813   11.8077 C.ar      1 UNK         0.0000
   4706 C(3)       48.7540   11.3480   11.6511 C.ar      1 UNK         0.0000
   4707 C(4)       49.1243   12.2102   12.6800 C.ar      1 UNK         0.0000
   4708 C(5)       48.4209   12.1865   13.8837 C.ar      1 UNK         0.0000
   4709 C(6)       47.3431   11.3265   14.0386 C.ar      1 UNK         0.0000
   4710 C(7)       45.0388    9.0373   12.3664 C.2       1 UNK         0.0000
   4711 C(8)       43.9154    8.2358   12.9673 C.3       1 UNK         0.0000
   4712 H(1)       47.3979    9.8185   10.9978 H         1 UNK         0.0000
   4713 H(2)       49.3008   11.3373   10.7162 H         1 UNK         0.0000
   4714 H(3)       48.7139   12.8423   14.6943 H         1 UNK         0.0000
   4715 H(4)       46.7962   11.3101   14.9733 H         1 UNK         0.0000
   4716 H(5)       50.4934   13.4143   13.3065 H         1 UNK         0.0000
   4717 H(6)       45.5877    9.5445   14.2253 H         1 UNK         0.0000
   4718 H(7)       44.1338    7.2053   12.8580 H         1 UNK         0.0000
   4719 H(8)       43.7636    8.4430   13.9947 H         1 UNK         0.0000
   4720 H(9)       43.0348    8.4002   12.4025 H         1 UNK         0.0000
   4721 O(1)       45.8411    9.8728    1.7534 O.3       1 UNK         0.0000
   4722 O(2)       40.8672   13.8173    0.4267 O.2       1 UNK         0.0000
   4723 N(1)       41.5182   13.2930    2.5384 N.am      1 UNK         0.0000
   4724 C(1)       42.6255   12.4531    2.2843 C.ar      1 UNK         0.0000
   4725 C(2)       43.3484   12.4512    1.0915 C.ar      1 UNK         0.0000
   4726 C(3)       44.4260   11.5845    0.9348 C.ar      1 UNK         0.0000
   4727 C(4)       44.7963   10.7223    1.9637 C.ar      1 UNK         0.0000
   4728 C(5)       44.0930   10.7460    3.1674 C.ar      1 UNK         0.0000
   4729 C(6)       43.0152   11.6060    3.3223 C.ar      1 UNK         0.0000
   4730 C(7)       40.7109   13.8952    1.6501 C.2       1 UNK         0.0000
   4731 C(8)       39.5874   14.6967    2.2511 C.3       1 UNK         0.0000
   4732 H(1)       43.0699   13.1140    0.2815 H         1 UNK         0.0000
   4733 H(2)       44.9728   11.5952    0.0000 H         1 UNK         0.0000
   4734 H(3)       44.3859   10.0902    3.9780 H         1 UNK         0.0000
   4735 H(4)       42.4683   11.6224    4.2570 H         1 UNK         0.0000
   4736 H(5)       46.1654    9.5182    2.5902 H         1 UNK         0.0000
   4737 H(6)       41.2597   13.3880    3.5091 H         1 UNK         0.0000
   4738 H(7)       39.8059   15.7272    2.1418 H         1 UNK         0.0000
   4739 H(8)       39.4356   14.4895    3.2785 H         1 UNK         0.0000
   4740 H(9)       38.7069   14.5323    1.6863 H         1 UNK         0.0000
   4741 O(1)       32.7944    5.2863    7.7556 O.3       1 UNK         0.0000
   4742 O(2)       37.7683    9.2308    9.0824 O.2       1 UNK         0.0000
   4743 N(1)       37.1172    8.7065    6.9707 N.am      1 UNK         0.0000
   4744 C(1)       36.0099    7.8666    7.2247 C.ar      1 UNK         0.0000
   4745 C(2)       35.2871    7.8647    8.4175 C.ar      1 UNK         0.0000
   4746 C(3)       34.2094    6.9980    8.5742 C.ar      1 UNK         0.0000
   4747 C(4)       33.8391    6.1358    7.5453 C.ar      1 UNK         0.0000
   4748 C(5)       34.5424    6.1595    6.3416 C.ar      1 UNK         0.0000
   4749 C(6)       35.6203    7.0195    6.1867 C.ar      1 UNK         0.0000
   4750 C(7)       37.9246    9.3087    7.8589 C.2       1 UNK         0.0000
   4751 C(8)       39.0480   10.1102    7.2579 C.3       1 UNK         0.0000
   4752 H(1)       35.5655    8.5275    9.2275 H         1 UNK         0.0000
   4753 H(2)       33.6626    7.0087    9.5090 H         1 UNK         0.0000
   4754 H(3)       34.2495    5.5037    5.5310 H         1 UNK         0.0000
   4755 H(4)       36.1672    7.0359    5.2520 H         1 UNK         0.0000
   4756 H(5)       32.4700    4.9317    6.9188 H         1 UNK         0.0000
   4757 H(6)       37.3757    8.8015    5.9999 H         1 UNK         0.0000
   4758 H(7)       38.8296   11.1407    7.3672 H         1 UNK         0.0000
   4759 H(8)       39.1998    9.9030    6.2305 H         1 UNK         0.0000
   4760 H(9)       39.9286    9.9458    7.8227 H         1 UNK         0.0000
   4761 O(1)       40.0404    8.4732   18.2703 O.3       1 UNK         0.0000
   4762 O(2)       45.0143    4.5287   19.5971 O.2       1 UNK         0.0000
   4763 N(1)       44.3633    5.0530   17.4854 N.am      1 UNK         0.0000
   4764 C(1)       43.2559    5.8929   17.7395 C.ar      1 UNK         0.0000
   4765 C(2)       42.5331    5.8948   18.9323 C.ar      1 UNK         0.0000
   4766 C(3)       41.4554    6.7615   19.0889 C.ar      1 UNK         0.0000
   4767 C(4)       41.0851    7.6237   18.0600 C.ar      1 UNK         0.0000
   4768 C(5)       41.7885    7.6000   16.8563 C.ar      1 UNK         0.0000
   4769 C(6)       42.8663    6.7400   16.7014 C.ar      1 UNK         0.0000
   4770 C(7)       45.1706    4.4508   18.3737 C.2       1 UNK         0.0000
   4771 C(8)       46.2941    3.6493   17.7727 C.3       1 UNK         0.0000
   4772 H(1)       42.8116    5.2320   19.7422 H         1 UNK         0.0000
   4773 H(2)       40.9087    6.7508   20.0238 H         1 UNK         0.0000
   4774 H(3)       41.4955    8.2558   16.0457 H         1 UNK         0.0000
   4775 H(4)       43.4132    6.7236   15.7668 H         1 UNK         0.0000
   4776 H(5)       39.7161    8.8278   17.4335 H         1 UNK         0.0000
   4777 H(6)       44.6218    4.9580   16.5147 H         1 UNK         0.0000
   4778 H(7)       46.0756    2.6188   17.8820 H         1 UNK         0.0000
   4779 H(8)       46.4458    3.8565   16.7453 H         1 UNK         0.0000
   4780 H(9)       47.1746    3.8137   18.3375 H         1 UNK         0.0000
   4781 O(1)       39.5677   13.0597   19.4795 O.3       1 UNK         0.0000
   4782 O(2)       34.5938    9.1152   18.1527 O.2       1 UNK         0.0000
   4783 N(1)       35.2449    9.6395   20.2644 N.am      1 UNK         0.0000
   4784 C(1)       36.3522   10.4794   20.0104 C.ar      1 UNK         0.0000
   4785 C(2)       37.0750   10.4813   18.8176 C.ar      1 UNK         0.0000
   4786 C(3)       38.1527   11.3480   18.6609 C.ar      1 UNK         0.0000
   4787 C(4)       38.5230   12.2102   19.6898 C.ar      1 UNK         0.0000
   4788 C(5)       37.8196   12.1865   20.8935 C.ar      1 UNK         0.0000
   4789 C(6)       36.7418   11.3265   21.0484 C.ar      1 UNK         0.0000
   4790 C(7)       34.4375    9.0373   19.3762 C.2       1 UNK         0.0000
   4791 C(8)       33.3141    8.2358   19.9772 C.3       1 UNK         0.0000
   4792 H(1)       36.7966    9.8185   18.0076 H         1 UNK         0.0000
   4793 H(2)       38.6994   11.3373   17.7261 H         1 UNK         0.0000
   4794 H(3)       38.1126   12.8423   21.7041 H         1 UNK         0.0000
   4795 H(4)       36.1949   11.3101   21.9831 H         1 UNK         0.0000
   4796 H(5)       39.8921   13.4143   20.3163 H         1 UNK         0.0000
   4797 H(6)       34.9864    9.5445   21.2352 H         1 UNK         0.0000
   4798 H(7)       33.5325    7.2053   19.8678 H         1 UNK         0.0000
   4799 H(8)       33.1623    8.4430   21.0046 H         1 UNK         0.0000
   4800 H(9)       32.4335    8.4002   19.4124 H         1 UNK         0.0000
   4801 O(1)       43.8957   19.0458    8.9648 O.3       1 UNK         0.0000
   4802 O(2)       38.9218   22.9903    7.6380 O.2       1 UNK         0.0000
   4803 N(1)       39.5728   22.4660    9.7497 N.am      1 UNK         0.0000
   4804 C(1)       40.6801   21.6261    9.4956 C.ar      1 UNK         0.0000
   4805 C(2)       41.4030   21.6242    8.3028 C.ar      1 UNK         0.0000
   4806 C(3)       42.4806   20.7575    8.1462 C.ar      1 UNK         0.0000
   4807 C(4)       42.8510   19.8953    9.1751 C.ar      1 UNK         0.0000
   4808 C(5)       42.1476   19.9190   10.3788 C.ar      1 UNK         0.0000
   4809 C(6)       41.0698   20.7790   10.5337 C.ar      1 UNK         0.0000
   4810 C(7)       38.7655   23.0682    8.8614 C.2       1 UNK         0.0000
   4811 C(8)       37.6420   23.8697    9.4624 C.3       1 UNK         0.0000
   4812 H(1)       41.1245   22.2870    7.4929 H         1 UNK         0.0000
   4813 H(2)       43.0274   20.7682    7.2113 H         1 UNK         0.0000
   4814 H(3)       42.4406   19.2632   11.1894 H         1 UNK         0.0000
   4815 H(4)       40.5229   20.7954   11.4683 H         1 UNK         0.0000
   4816 H(5)       44.2200   18.6912    9.8016 H         1 UNK         0.0000
   4817 H(6)       39.3143   22.5611   10.7204 H         1 UNK         0.0000
   4818 H(7)       37.8605   24.9002    9.3531 H         1 UNK         0.0000
   4819 H(8)       37.4903   23.6625   10.4898 H         1 UNK         0.0000
   4820 H(9)       36.7615   23.7053    8.8976 H         1 UNK         0.0000
   4821 O(1)       33.7671   14.4593   14.7654 O.3       1 UNK         0.0000
   4822 O(2)       38.7410   18.4038   16.0922 O.2       1 UNK         0.0000
   4823 N(1)       38.0899   17.8795   13.9805 N.am      1 UNK         0.0000
   4824 C(1)       36.9826   17.0396   14.2346 C.ar      1 UNK         0.0000
   4825 C(2)       36.2598   17.0377   15.4274 C.ar      1 UNK         0.0000
   4826 C(3)       35.1821   16.1710   15.5840 C.ar      1 UNK         0.0000
   4827 C(4)       34.8118   15.3088   14.5551 C.ar      1 UNK         0.0000
   4828 C(5)       35.5151   15.3325   13.3514 C.ar      1 UNK         0.0000
   4829 C(6)       36.5930   16.1925   13.1965 C.ar      1 UNK         0.0000
   4830 C(7)       38.8973   18.4817   14.8687 C.2       1 UNK         0.0000
   4831 C(8)       40.0207   19.2832   14.2678 C.3       1 UNK         0.0000
   4832 H(1)       36.5382   17.7005   16.2373 H         1 UNK         0.0000
   4833 H(2)       34.6353   16.1817   16.5188 H         1 UNK         0.0000
   4834 H(3)       35.2222   14.6767   12.5408 H         1 UNK         0.0000
   4835 H(4)       37.1399   16.2089   12.2618 H         1 UNK         0.0000
   4836 H(5)       33.4427   14.1047   13.9286 H         1 UNK         0.0000
   4837 H(6)       38.3484   17.9746   13.0098 H         1 UNK         0.0000
   4838 H(7)       39.8023   20.3137   14.3771 H         1 UNK         0.0000
   4839 H(8)       40.1725   19.0760   13.2404 H         1 UNK         0.0000
   4840 H(9)       40.9012   19.1188   14.8326 H         1 UNK         0.0000
   4841 O(1)       38.0950   26.8192    4.2507 O.3       1 UNK         0.0000
   4842 O(2)       43.0689   22.8747    5.5774 O.2       1 UNK         0.0000
   4843 N(1)       42.4179   23.3990    3.4657 N.am      1 UNK         0.0000
   4844 C(1)       41.3106   24.2389    3.7198 C.ar      1 UNK         0.0000
   4845 C(2)       40.5877   24.2408    4.9126 C.ar      1 UNK         0.0000
   4846 C(3)       39.5101   25.1075    5.0693 C.ar      1 UNK         0.0000
   4847 C(4)       39.1397   25.9697    4.0404 C.ar      1 UNK         0.0000
   4848 C(5)       39.8431   25.9460    2.8367 C.ar      1 UNK         0.0000
   4849 C(6)       40.9209   25.0860    2.6817 C.ar      1 UNK         0.0000
   4850 C(7)       43.2252   22.7968    4.3540 C.2       1 UNK         0.0000
   4851 C(8)       44.3487   21.9953    3.7530 C.3       1 UNK         0.0000
   4852 H(1)       40.8662   23.5780    5.7226 H         1 UNK         0.0000
   4853 H(2)       38.9633   25.0968    6.0041 H         1 UNK         0.0000
   4854 H(3)       39.5501   26.6018    2.0261 H         1 UNK         0.0000
   4855 H(4)       41.4678   25.0696    1.7471 H         1 UNK         0.0000
   4856 H(5)       37.7707   27.1738    3.4139 H         1 UNK         0.0000
   4857 H(6)       42.6764   23.3040    2.4950 H         1 UNK         0.0000
   4858 H(7)       44.1302   20.9648    3.8623 H         1 UNK         0.0000
   4859 H(8)       44.5004   22.2025    2.7256 H         1 UNK         0.0000
   4860 H(9)       45.2292   22.1597    4.3178 H         1 UNK         0.0000
   4861 O(1)       37.6223   22.2327    5.4598 O.3       1 UNK         0.0000
   4862 O(2)       32.6484   18.2882    4.1331 O.2       1 UNK         0.0000
   4863 N(1)       33.2995   18.8125    6.2448 N.am      1 UNK         0.0000
   4864 C(1)       34.4068   19.6524    5.9907 C.ar      1 UNK         0.0000
   4865 C(2)       35.1296   19.6543    4.7979 C.ar      1 UNK         0.0000
   4866 C(3)       36.2073   20.5210    4.6412 C.ar      1 UNK         0.0000
   4867 C(4)       36.5776   21.3832    5.6701 C.ar      1 UNK         0.0000
   4868 C(5)       35.8743   21.3595    6.8738 C.ar      1 UNK         0.0000
   4869 C(6)       34.7964   20.4995    7.0288 C.ar      1 UNK         0.0000
   4870 C(7)       32.4921   18.2103    5.3565 C.2       1 UNK         0.0000
   4871 C(8)       31.3687   17.4088    5.9575 C.3       1 UNK         0.0000
   4872 H(1)       34.8512   18.9915    3.9879 H         1 UNK         0.0000
   4873 H(2)       36.7541   20.5103    3.7064 H         1 UNK         0.0000
   4874 H(3)       36.1672   22.0153    7.6844 H         1 UNK         0.0000
   4875 H(4)       34.2495   20.4831    7.9634 H         1 UNK         0.0000
   4876 H(5)       37.9467   22.5873    6.2966 H         1 UNK         0.0000
   4877 H(6)       33.0410   18.7175    7.2155 H         1 UNK         0.0000
   4878 H(7)       31.5871   16.3783    5.8482 H         1 UNK         0.0000
   4879 H(8)       31.2169   17.6160    6.9849 H         1 UNK         0.0000
   4880 H(9)       30.4881   17.5732    5.3927 H         1 UNK         0.0000
   4881 O(1)       44.8684   19.0458   15.9746 O.3       1 UNK         0.0000
   4882 O(2)       39.8945   22.9903   14.6478 O.2       1 UNK         0.0000
   4883 N(1)       40.5455   22.4660   16.7595 N.am      1 UNK         0.0000
   4884 C(1)       41.6528   21.6261   16.5055 C.ar      1 UNK         0.0000
   4885 C(2)       42.3757   21.6242   15.3126 C.ar      1 UNK         0.0000
   4886 C(3)       43.4533   20.7575   15.1560 C.ar      1 UNK         0.0000
   4887 C(4)       43.8236   19.8953   16.1849 C.ar      1 UNK         0.0000
   4888 C(5)       43.1203   19.9190   17.3886 C.ar      1 UNK         0.0000
   4889 C(6)       42.0425   20.7790   17.5435 C.ar      1 UNK         0.0000
   4890 C(7)       39.7382   23.0682   15.8713 C.2       1 UNK         0.0000
   4891 C(8)       38.6147   23.8697   16.4723 C.3       1 UNK         0.0000
   4892 H(1)       42.0972   22.2870   14.5027 H         1 UNK         0.0000
   4893 H(2)       44.0001   20.7682   14.2212 H         1 UNK         0.0000
   4894 H(3)       43.4132   19.2632   18.1992 H         1 UNK         0.0000
   4895 H(4)       41.4956   20.7954   18.4782 H         1 UNK         0.0000
   4896 H(5)       45.1927   18.6912   16.8114 H         1 UNK         0.0000
   4897 H(6)       40.2870   22.5611   17.7302 H         1 UNK         0.0000
   4898 H(7)       38.8332   24.9002   16.3629 H         1 UNK         0.0000
   4899 H(8)       38.4629   23.6625   17.4996 H         1 UNK         0.0000
   4900 H(9)       37.7342   23.7053   15.9074 H         1 UNK         0.0000
   4901 O(1)       46.3138   14.4593   21.7753 O.3       1 UNK         0.0000
   4902 O(2)       51.2877   18.4038   23.1020 O.2       1 UNK         0.0000
   4903 N(1)       50.6366   17.8795   20.9903 N.am      1 UNK         0.0000
   4904 C(1)       49.5293   17.0396   21.2444 C.ar      1 UNK         0.0000
   4905 C(2)       48.8065   17.0377   22.4372 C.ar      1 UNK         0.0000
   4906 C(3)       47.7288   16.1710   22.5939 C.ar      1 UNK         0.0000
   4907 C(4)       47.3585   15.3088   21.5650 C.ar      1 UNK         0.0000
   4908 C(5)       48.0618   15.3325   20.3613 C.ar      1 UNK         0.0000
   4909 C(6)       49.1396   16.1925   20.2063 C.ar      1 UNK         0.0000
   4910 C(7)       51.4440   18.4817   21.8786 C.2       1 UNK         0.0000
   4911 C(8)       52.5674   19.2832   21.2776 C.3       1 UNK         0.0000
   4912 H(1)       49.0849   17.7005   23.2472 H         1 UNK         0.0000
   4913 H(2)       47.1820   16.1817   23.5287 H         1 UNK         0.0000
   4914 H(3)       47.7689   14.6767   19.5507 H         1 UNK         0.0000
   4915 H(4)       49.6866   16.2089   19.2717 H         1 UNK         0.0000
   4916 H(5)       45.9894   14.1047   20.9385 H         1 UNK         0.0000
   4917 H(6)       50.8951   17.9746   20.0196 H         1 UNK         0.0000
   4918 H(7)       52.3490   20.3137   21.3869 H         1 UNK         0.0000
   4919 H(8)       52.7192   19.0760   20.2502 H         1 UNK         0.0000
   4920 H(9)       53.4479   19.1188   21.8424 H         1 UNK         0.0000
   4921 O(1)       39.0677   26.8192   11.2605 O.3       1 UNK         0.0000
   4922 O(2)       44.0416   22.8747   12.5873 O.2       1 UNK         0.0000
   4923 N(1)       43.3906   23.3990   10.4756 N.am      1 UNK         0.0000
   4924 C(1)       42.2832   24.2389   10.7296 C.ar      1 UNK         0.0000
   4925 C(2)       41.5604   24.2408   11.9225 C.ar      1 UNK         0.0000
   4926 C(3)       40.4827   25.1075   12.0791 C.ar      1 UNK         0.0000
   4927 C(4)       40.1124   25.9697   11.0502 C.ar      1 UNK         0.0000
   4928 C(5)       40.8158   25.9460    9.8465 C.ar      1 UNK         0.0000
   4929 C(6)       41.8936   25.0860    9.6916 C.ar      1 UNK         0.0000
   4930 C(7)       44.1979   22.7968   11.3638 C.2       1 UNK         0.0000
   4931 C(8)       45.3214   21.9953   10.7628 C.3       1 UNK         0.0000
   4932 H(1)       41.8389   23.5780   12.7324 H         1 UNK         0.0000
   4933 H(2)       39.9360   25.0968   13.0139 H         1 UNK         0.0000
   4934 H(3)       40.5228   26.6018    9.0359 H         1 UNK         0.0000
   4935 H(4)       42.4405   25.0696    8.7569 H         1 UNK         0.0000
   4936 H(5)       38.7434   27.1738   10.4237 H         1 UNK         0.0000
   4937 H(6)       43.6491   23.3040    9.5049 H         1 UNK         0.0000
   4938 H(7)       45.1029   20.9648   10.8722 H         1 UNK         0.0000
   4939 H(8)       45.4731   22.2025    9.7355 H         1 UNK         0.0000
   4940 H(9)       46.2019   22.1597   11.3277 H         1 UNK         0.0000
   4941 O(1)       50.1690   22.2327   12.4697 O.3       1 UNK         0.0000
   4942 O(2)       45.1951   18.2882   11.1429 O.2       1 UNK         0.0000
   4943 N(1)       45.8462   18.8125   13.2546 N.am      1 UNK         0.0000
   4944 C(1)       46.9535   19.6524   13.0005 C.ar      1 UNK         0.0000
   4945 C(2)       47.6763   19.6543   11.8077 C.ar      1 UNK         0.0000
   4946 C(3)       48.7540   20.5210   11.6511 C.ar      1 UNK         0.0000
   4947 C(4)       49.1243   21.3832   12.6800 C.ar      1 UNK         0.0000
   4948 C(5)       48.4209   21.3595   13.8837 C.ar      1 UNK         0.0000
   4949 C(6)       47.3431   20.4995   14.0386 C.ar      1 UNK         0.0000
   4950 C(7)       45.0388   18.2103   12.3664 C.2       1 UNK         0.0000
   4951 C(8)       43.9154   17.4088   12.9673 C.3       1 UNK         0.0000
   4952 H(1)       47.3979   18.9915   10.9978 H         1 UNK         0.0000
   4953 H(2)       49.3008   20.5103   10.7162 H         1 UNK         0.0000
   4954 H(3)       48.7139   22.0153   14.6943 H         1 UNK         0.0000
   4955 H(4)       46.7962   20.4831   14.9733 H         1 UNK         0.0000
   4956 H(5)       50.4934   22.5873   13.3065 H         1 UNK         0.0000
   4957 H(6)       45.5877   18.7175   14.2253 H         1 UNK         0.0000
   4958 H(7)       44.1338   16.3783   12.8580 H         1 UNK         0.0000
   4959 H(8)       43.7636   17.6160   13.9947 H         1 UNK         0.0000
   4960 H(9)       43.0348   17.5732   12.4025 H         1 UNK         0.0000
   4961 O(1)       45.8411   19.0458    1.7534 O.3       1 UNK         0.0000
   4962 O(2)       40.8672   22.9903    0.4267 O.2       1 UNK         0.0000
   4963 N(1)       41.5182   22.4660    2.5384 N.am      1 UNK         0.0000
   4964 C(1)       42.6255   21.6261    2.2843 C.ar      1 UNK         0.0000
   4965 C(2)       43.3484   21.6242    1.0915 C.ar      1 UNK         0.0000
   4966 C(3)       44.4260   20.7575    0.9348 C.ar      1 UNK         0.0000
   4967 C(4)       44.7963   19.8953    1.9637 C.ar      1 UNK         0.0000
   4968 C(5)       44.0930   19.9190    3.1674 C.ar      1 UNK         0.0000
   4969 C(6)       43.0152   20.7790    3.3223 C.ar      1 UNK         0.0000
   4970 C(7)       40.7109   23.0682    1.6501 C.2       1 UNK         0.0000
   4971 C(8)       39.5874   23.8697    2.2511 C.3       1 UNK         0.0000
   4972 H(1)       43.0699   22.2870    0.2815 H         1 UNK         0.0000
   4973 H(2)       44.9728   20.7682    0.0000 H         1 UNK         0.0000
   4974 H(3)       44.3859   19.2632    3.9780 H         1 UNK         0.0000
   4975 H(4)       42.4683   20.7954    4.2570 H         1 UNK         0.0000
   4976 H(5)       46.1654   18.6912    2.5902 H         1 UNK         0.0000
   4977 H(6)       41.2597   22.5611    3.5091 H         1 UNK         0.0000
   4978 H(7)       39.8059   24.9002    2.1418 H         1 UNK         0.0000
   4979 H(8)       39.4356   23.6625    3.2785 H         1 UNK         0.0000
   4980 H(9)       38.7069   23.7053    1.6863 H         1 UNK         0.0000
   4981 O(1)       32.7944   14.4593    7.7556 O.3       1 UNK         0.0000
   4982 O(2)       37.7683   18.4038    9.0824 O.2       1 UNK         0.0000
   4983 N(1)       37.1172   17.8795    6.9707 N.am      1 UNK         0.0000
   4984 C(1)       36.0099   17.0396    7.2247 C.ar      1 UNK         0.0000
   4985 C(2)       35.2871   17.0377    8.4175 C.ar      1 UNK         0.0000
   4986 C(3)       34.2094   16.1710    8.5742 C.ar      1 UNK         0.0000
   4987 C(4)       33.8391   15.3088    7.5453 C.ar      1 UNK         0.0000
   4988 C(5)       34.5424   15.3325    6.3416 C.ar      1 UNK         0.0000
   4989 C(6)       35.6203   16.1925    6.1867 C.ar      1 UNK         0.0000
   4990 C(7)       37.9246   18.4817    7.8589 C.2       1 UNK         0.0000
   4991 C(8)       39.0480   19.2832    7.2579 C.3       1 UNK         0.0000
   4992 H(1)       35.5655   17.7005    9.2275 H         1 UNK         0.0000
   4993 H(2)       33.6626   16.1817    9.5090 H         1 UNK         0.0000
   4994 H(3)       34.2495   14.6767    5.5310 H         1 UNK         0.0000
   4995 H(4)       36.1672   16.2089    5.2520 H         1 UNK         0.0000
   4996 H(5)       32.4700   14.1047    6.9188 H         1 UNK         0.0000
   4997 H(6)       37.3757   17.9746    5.9999 H         1 UNK         0.0000
   4998 H(7)       38.8296   20.3137    7.3672 H         1 UNK         0.0000
   4999 H(8)       39.1998   19.0760    6.2305 H         1 UNK         0.0000
   5000 H(9)       39.9286   19.1188    7.8227 H         1 UNK         0.0000
   5001 O(1)       40.0404   17.6462   18.2703 O.3       1 UNK         0.0000
   5002 O(2)       45.0143   13.7017   19.5971 O.2       1 UNK         0.0000
   5003 N(1)       44.3633   14.2260   17.4854 N.am      1 UNK         0.0000
   5004 C(1)       43.2559   15.0659   17.7395 C.ar      1 UNK         0.0000
   5005 C(2)       42.5331   15.0678   18.9323 C.ar      1 UNK         0.0000
   5006 C(3)       41.4554   15.9345   19.0889 C.ar      1 UNK         0.0000
   5007 C(4)       41.0851   16.7967   18.0600 C.ar      1 UNK         0.0000
   5008 C(5)       41.7885   16.7730   16.8563 C.ar      1 UNK         0.0000
   5009 C(6)       42.8663   15.9130   16.7014 C.ar      1 UNK         0.0000
   5010 C(7)       45.1706   13.6238   18.3737 C.2       1 UNK         0.0000
   5011 C(8)       46.2941   12.8223   17.7727 C.3       1 UNK         0.0000
   5012 H(1)       42.8116   14.4050   19.7422 H         1 UNK         0.0000
   5013 H(2)       40.9087   15.9238   20.0238 H         1 UNK         0.0000
   5014 H(3)       41.4955   17.4288   16.0457 H         1 UNK         0.0000
   5015 H(4)       43.4132   15.8966   15.7668 H         1 UNK         0.0000
   5016 H(5)       39.7161   18.0008   17.4335 H         1 UNK         0.0000
   5017 H(6)       44.6218   14.1310   16.5147 H         1 UNK         0.0000
   5018 H(7)       46.0756   11.7918   17.8820 H         1 UNK         0.0000
   5019 H(8)       46.4458   13.0295   16.7453 H         1 UNK         0.0000
   5020 H(9)       47.1746   12.9867   18.3375 H         1 UNK         0.0000
   5021 O(1)       39.5677   22.2327   19.4795 O.3       1 UNK         0.0000
   5022 O(2)       34.5938   18.2882   18.1527 O.2       1 UNK         0.0000
   5023 N(1)       35.2449   18.8125   20.2644 N.am      1 UNK         0.0000
   5024 C(1)       36.3522   19.6524   20.0104 C.ar      1 UNK         0.0000
   5025 C(2)       37.0750   19.6543   18.8176 C.ar      1 UNK         0.0000
   5026 C(3)       38.1527   20.5210   18.6609 C.ar      1 UNK         0.0000
   5027 C(4)       38.5230   21.3832   19.6898 C.ar      1 UNK         0.0000
   5028 C(5)       37.8196   21.3595   20.8935 C.ar      1 UNK         0.0000
   5029 C(6)       36.7418   20.4995   21.0484 C.ar      1 UNK         0.0000
   5030 C(7)       34.4375   18.2103   19.3762 C.2       1 UNK         0.0000
   5031 C(8)       33.3141   17.4088   19.9772 C.3       1 UNK         0.0000
   5032 H(1)       36.7966   18.9915   18.0076 H         1 UNK         0.0000
   5033 H(2)       38.6994   20.5103   17.7261 H         1 UNK         0.0000
   5034 H(3)       38.1126   22.0153   21.7041 H         1 UNK         0.0000
   5035 H(4)       36.1949   20.4831   21.9831 H         1 UNK         0.0000
   5036 H(5)       39.8921   22.5873   20.3163 H         1 UNK         0.0000
   5037 H(6)       34.9864   18.7175   21.2352 H         1 UNK         0.0000
   5038 H(7)       33.5325   16.3783   19.8678 H         1 UNK         0.0000
   5039 H(8)       33.1623   17.6160   21.0046 H         1 UNK         0.0000
   5040 H(9)       32.4335   17.5732   19.4124 H         1 UNK         0.0000
   5041 O(1)       43.8957   28.2188    8.9648 O.3       1 UNK         0.0000
   5042 O(2)       38.9218   32.1633    7.6380 O.2       1 UNK         0.0000
   5043 N(1)       39.5728   31.6390    9.7497 N.am      1 UNK         0.0000
   5044 C(1)       40.6801   30.7991    9.4956 C.ar      1 UNK         0.0000
   5045 C(2)       41.4030   30.7972    8.3028 C.ar      1 UNK         0.0000
   5046 C(3)       42.4806   29.9305    8.1462 C.ar      1 UNK         0.0000
   5047 C(4)       42.8510   29.0683    9.1751 C.ar      1 UNK         0.0000
   5048 C(5)       42.1476   29.0920   10.3788 C.ar      1 UNK         0.0000
   5049 C(6)       41.0698   29.9520   10.5337 C.ar      1 UNK         0.0000
   5050 C(7)       38.7655   32.2412    8.8614 C.2       1 UNK         0.0000
   5051 C(8)       37.6420   33.0427    9.4624 C.3       1 UNK         0.0000
   5052 H(1)       41.1245   31.4600    7.4929 H         1 UNK         0.0000
   5053 H(2)       43.0274   29.9412    7.2113 H         1 UNK         0.0000
   5054 H(3)       42.4406   28.4362   11.1894 H         1 UNK         0.0000
   5055 H(4)       40.5229   29.9684   11.4683 H         1 UNK         0.0000
   5056 H(5)       44.2200   27.8642    9.8016 H         1 UNK         0.0000
   5057 H(6)       39.3143   31.7340   10.7204 H         1 UNK         0.0000
   5058 H(7)       37.8605   34.0732    9.3531 H         1 UNK         0.0000
   5059 H(8)       37.4903   32.8355   10.4898 H         1 UNK         0.0000
   5060 H(9)       36.7615   32.8783    8.8976 H         1 UNK         0.0000
   5061 O(1)       33.7671   23.6323   14.7654 O.3       1 UNK         0.0000
   5062 O(2)       38.7410   27.5768   16.0922 O.2       1 UNK         0.0000
   5063 N(1)       38.0899   27.0525   13.9805 N.am      1 UNK         0.0000
   5064 C(1)       36.9826   26.2126   14.2346 C.ar      1 UNK         0.0000
   5065 C(2)       36.2598   26.2107   15.4274 C.ar      1 UNK         0.0000
   5066 C(3)       35.1821   25.3440   15.5840 C.ar      1 UNK         0.0000
   5067 C(4)       34.8118   24.4818   14.5551 C.ar      1 UNK         0.0000
   5068 C(5)       35.5151   24.5055   13.3514 C.ar      1 UNK         0.0000
   5069 C(6)       36.5930   25.3655   13.1965 C.ar      1 UNK         0.0000
   5070 C(7)       38.8973   27.6547   14.8687 C.2       1 UNK         0.0000
   5071 C(8)       40.0207   28.4562   14.2678 C.3       1 UNK         0.0000
   5072 H(1)       36.5382   26.8735   16.2373 H         1 UNK         0.0000
   5073 H(2)       34.6353   25.3547   16.5188 H         1 UNK         0.0000
   5074 H(3)       35.2222   23.8497   12.5408 H         1 UNK         0.0000
   5075 H(4)       37.1399   25.3819   12.2618 H         1 UNK         0.0000
   5076 H(5)       33.4427   23.2777   13.9286 H         1 UNK         0.0000
   5077 H(6)       38.3484   27.1475   13.0098 H         1 UNK         0.0000
   5078 H(7)       39.8023   29.4867   14.3771 H         1 UNK         0.0000
   5079 H(8)       40.1725   28.2490   13.2404 H         1 UNK         0.0000
   5080 H(9)       40.9012   28.2918   14.8326 H         1 UNK         0.0000
   5081 O(1)       38.0950   35.9922    4.2507 O.3       1 UNK         0.0000
   5082 O(2)       43.0689   32.0477    5.5774 O.2       1 UNK         0.0000
   5083 N(1)       42.4179   32.5720    3.4657 N.am      1 UNK         0.0000
   5084 C(1)       41.3106   33.4119    3.7198 C.ar      1 UNK         0.0000
   5085 C(2)       40.5877   33.4138    4.9126 C.ar      1 UNK         0.0000
   5086 C(3)       39.5101   34.2805    5.0693 C.ar      1 UNK         0.0000
   5087 C(4)       39.1397   35.1427    4.0404 C.ar      1 UNK         0.0000
   5088 C(5)       39.8431   35.1190    2.8367 C.ar      1 UNK         0.0000
   5089 C(6)       40.9209   34.2590    2.6817 C.ar      1 UNK         0.0000
   5090 C(7)       43.2252   31.9698    4.3540 C.2       1 UNK         0.0000
   5091 C(8)       44.3487   31.1683    3.7530 C.3       1 UNK         0.0000
   5092 H(1)       40.8662   32.7510    5.7226 H         1 UNK         0.0000
   5093 H(2)       38.9633   34.2698    6.0041 H         1 UNK         0.0000
   5094 H(3)       39.5501   35.7748    2.0261 H         1 UNK         0.0000
   5095 H(4)       41.4678   34.2426    1.7471 H         1 UNK         0.0000
   5096 H(5)       37.7707   36.3468    3.4139 H         1 UNK         0.0000
   5097 H(6)       42.6764   32.4770    2.4950 H         1 UNK         0.0000
   5098 H(7)       44.1302   30.1378    3.8623 H         1 UNK         0.0000
   5099 H(8)       44.5004   31.3755    2.7256 H         1 UNK         0.0000
   5100 H(9)       45.2292   31.3327    4.3178 H         1 UNK         0.0000
   5101 O(1)       37.6223   31.4057    5.4598 O.3       1 UNK         0.0000
   5102 O(2)       32.6484   27.4612    4.1331 O.2       1 UNK         0.0000
   5103 N(1)       33.2995   27.9855    6.2448 N.am      1 UNK         0.0000
   5104 C(1)       34.4068   28.8254    5.9907 C.ar      1 UNK         0.0000
   5105 C(2)       35.1296   28.8273    4.7979 C.ar      1 UNK         0.0000
   5106 C(3)       36.2073   29.6940    4.6412 C.ar      1 UNK         0.0000
   5107 C(4)       36.5776   30.5562    5.6701 C.ar      1 UNK         0.0000
   5108 C(5)       35.8743   30.5325    6.8738 C.ar      1 UNK         0.0000
   5109 C(6)       34.7964   29.6725    7.0288 C.ar      1 UNK         0.0000
   5110 C(7)       32.4921   27.3833    5.3565 C.2       1 UNK         0.0000
   5111 C(8)       31.3687   26.5818    5.9575 C.3       1 UNK         0.0000
   5112 H(1)       34.8512   28.1645    3.9879 H         1 UNK         0.0000
   5113 H(2)       36.7541   29.6833    3.7064 H         1 UNK         0.0000
   5114 H(3)       36.1672   31.1883    7.6844 H         1 UNK         0.0000
   5115 H(4)       34.2495   29.6561    7.9634 H         1 UNK         0.0000
   5116 H(5)       37.9467   31.7603    6.2966 H         1 UNK         0.0000
   5117 H(6)       33.0410   27.8905    7.2155 H         1 UNK         0.0000
   5118 H(7)       31.5871   25.5513    5.8482 H         1 UNK         0.0000
   5119 H(8)       31.2169   26.7890    6.9849 H         1 UNK         0.0000
   5120 H(9)       30.4881   26.7462    5.3927 H         1 UNK         0.0000
   5121 O(1)       44.8684   28.2188   15.9746 O.3       1 UNK         0.0000
   5122 O(2)       39.8945   32.1633   14.6478 O.2       1 UNK         0.0000
   5123 N(1)       40.5455   31.6390   16.7595 N.am      1 UNK         0.0000
   5124 C(1)       41.6528   30.7991   16.5055 C.ar      1 UNK         0.0000
   5125 C(2)       42.3757   30.7972   15.3126 C.ar      1 UNK         0.0000
   5126 C(3)       43.4533   29.9305   15.1560 C.ar      1 UNK         0.0000
   5127 C(4)       43.8236   29.0683   16.1849 C.ar      1 UNK         0.0000
   5128 C(5)       43.1203   29.0920   17.3886 C.ar      1 UNK         0.0000
   5129 C(6)       42.0425   29.9520   17.5435 C.ar      1 UNK         0.0000
   5130 C(7)       39.7382   32.2412   15.8713 C.2       1 UNK         0.0000
   5131 C(8)       38.6147   33.0427   16.4723 C.3       1 UNK         0.0000
   5132 H(1)       42.0972   31.4600   14.5027 H         1 UNK         0.0000
   5133 H(2)       44.0001   29.9412   14.2212 H         1 UNK         0.0000
   5134 H(3)       43.4132   28.4362   18.1992 H         1 UNK         0.0000
   5135 H(4)       41.4956   29.9684   18.4782 H         1 UNK         0.0000
   5136 H(5)       45.1927   27.8642   16.8114 H         1 UNK         0.0000
   5137 H(6)       40.2870   31.7340   17.7302 H         1 UNK         0.0000
   5138 H(7)       38.8332   34.0732   16.3629 H         1 UNK         0.0000
   5139 H(8)       38.4629   32.8355   17.4996 H         1 UNK         0.0000
   5140 H(9)       37.7342   32.8783   15.9074 H         1 UNK         0.0000
   5141 O(1)       46.3138   23.6323   21.7753 O.3       1 UNK         0.0000
   5142 O(2)       51.2877   27.5768   23.1020 O.2       1 UNK         0.0000
   5143 N(1)       50.6366   27.0525   20.9903 N.am      1 UNK         0.0000
   5144 C(1)       49.5293   26.2126   21.2444 C.ar      1 UNK         0.0000
   5145 C(2)       48.8065   26.2107   22.4372 C.ar      1 UNK         0.0000
   5146 C(3)       47.7288   25.3440   22.5939 C.ar      1 UNK         0.0000
   5147 C(4)       47.3585   24.4818   21.5650 C.ar      1 UNK         0.0000
   5148 C(5)       48.0618   24.5055   20.3613 C.ar      1 UNK         0.0000
   5149 C(6)       49.1396   25.3655   20.2063 C.ar      1 UNK         0.0000
   5150 C(7)       51.4440   27.6547   21.8786 C.2       1 UNK         0.0000
   5151 C(8)       52.5674   28.4562   21.2776 C.3       1 UNK         0.0000
   5152 H(1)       49.0849   26.8735   23.2472 H         1 UNK         0.0000
   5153 H(2)       47.1820   25.3547   23.5287 H         1 UNK         0.0000
   5154 H(3)       47.7689   23.8497   19.5507 H         1 UNK         0.0000
   5155 H(4)       49.6866   25.3819   19.2717 H         1 UNK         0.0000
   5156 H(5)       45.9894   23.2777   20.9385 H         1 UNK         0.0000
   5157 H(6)       50.8951   27.1475   20.0196 H         1 UNK         0.0000
   5158 H(7)       52.3490   29.4867   21.3869 H         1 UNK         0.0000
   5159 H(8)       52.7192   28.2490   20.2502 H         1 UNK         0.0000
   5160 H(9)       53.4479   28.2918   21.8424 H         1 UNK         0.0000
   5161 O(1)       39.0677   35.9922   11.2605 O.3       1 UNK         0.0000
   5162 O(2)       44.0416   32.0477   12.5873 O.2       1 UNK         0.0000
   5163 N(1)       43.3906   32.5720   10.4756 N.am      1 UNK         0.0000
   5164 C(1)       42.2832   33.4119   10.7296 C.ar      1 UNK         0.0000
   5165 C(2)       41.5604   33.4138   11.9225 C.ar      1 UNK         0.0000
   5166 C(3)       40.4827   34.2805   12.0791 C.ar      1 UNK         0.0000
   5167 C(4)       40.1124   35.1427   11.0502 C.ar      1 UNK         0.0000
   5168 C(5)       40.8158   35.1190    9.8465 C.ar      1 UNK         0.0000
   5169 C(6)       41.8936   34.2590    9.6916 C.ar      1 UNK         0.0000
   5170 C(7)       44.1979   31.9698   11.3638 C.2       1 UNK         0.0000
   5171 C(8)       45.3214   31.1683   10.7628 C.3       1 UNK         0.0000
   5172 H(1)       41.8389   32.7510   12.7324 H         1 UNK         0.0000
   5173 H(2)       39.9360   34.2698   13.0139 H         1 UNK         0.0000
   5174 H(3)       40.5228   35.7748    9.0359 H         1 UNK         0.0000
   5175 H(4)       42.4405   34.2426    8.7569 H         1 UNK         0.0000
   5176 H(5)       38.7434   36.3468   10.4237 H         1 UNK         0.0000
   5177 H(6)       43.6491   32.4770    9.5049 H         1 UNK         0.0000
   5178 H(7)       45.1029   30.1378   10.8722 H         1 UNK         0.0000
   5179 H(8)       45.4731   31.3755    9.7355 H         1 UNK         0.0000
   5180 H(9)       46.2019   31.3327   11.3277 H         1 UNK         0.0000
   5181 O(1)       50.1690   31.4057   12.4697 O.3       1 UNK         0.0000
   5182 O(2)       45.1951   27.4612   11.1429 O.2       1 UNK         0.0000
   5183 N(1)       45.8462   27.9855   13.2546 N.am      1 UNK         0.0000
   5184 C(1)       46.9535   28.8254   13.0005 C.ar      1 UNK         0.0000
   5185 C(2)       47.6763   28.8273   11.8077 C.ar      1 UNK         0.0000
   5186 C(3)       48.7540   29.6940   11.6511 C.ar      1 UNK         0.0000
   5187 C(4)       49.1243   30.5562   12.6800 C.ar      1 UNK         0.0000
   5188 C(5)       48.4209   30.5325   13.8837 C.ar      1 UNK         0.0000
   5189 C(6)       47.3431   29.6725   14.0386 C.ar      1 UNK         0.0000
   5190 C(7)       45.0388   27.3833   12.3664 C.2       1 UNK         0.0000
   5191 C(8)       43.9154   26.5818   12.9673 C.3       1 UNK         0.0000
   5192 H(1)       47.3979   28.1645   10.9978 H         1 UNK         0.0000
   5193 H(2)       49.3008   29.6833   10.7162 H         1 UNK         0.0000
   5194 H(3)       48.7139   31.1883   14.6943 H         1 UNK         0.0000
   5195 H(4)       46.7962   29.6561   14.9733 H         1 UNK         0.0000
   5196 H(5)       50.4934   31.7603   13.3065 H         1 UNK         0.0000
   5197 H(6)       45.5877   27.8905   14.2253 H         1 UNK         0.0000
   5198 H(7)       44.1338   25.5513   12.8580 H         1 UNK         0.0000
   5199 H(8)       43.7636   26.7890   13.9947 H         1 UNK         0.0000
   5200 H(9)       43.0348   26.7462   12.4025 H         1 UNK         0.0000
   5201 O(1)       45.8411   28.2188    1.7534 O.3       1 UNK         0.0000
   5202 O(2)       40.8672   32.1633    0.4267 O.2       1 UNK         0.0000
   5203 N(1)       41.5182   31.6390    2.5384 N.am      1 UNK         0.0000
   5204 C(1)       42.6255   30.7991    2.2843 C.ar      1 UNK         0.0000
   5205 C(2)       43.3484   30.7972    1.0915 C.ar      1 UNK         0.0000
   5206 C(3)       44.4260   29.9305    0.9348 C.ar      1 UNK         0.0000
   5207 C(4)       44.7963   29.0683    1.9637 C.ar      1 UNK         0.0000
   5208 C(5)       44.0930   29.0920    3.1674 C.ar      1 UNK         0.0000
   5209 C(6)       43.0152   29.9520    3.3223 C.ar      1 UNK         0.0000
   5210 C(7)       40.7109   32.2412    1.6501 C.2       1 UNK         0.0000
   5211 C(8)       39.5874   33.0427    2.2511 C.3       1 UNK         0.0000
   5212 H(1)       43.0699   31.4600    0.2815 H         1 UNK         0.0000
   5213 H(2)       44.9728   29.9412    0.0000 H         1 UNK         0.0000
   5214 H(3)       44.3859   28.4362    3.9780 H         1 UNK         0.0000
   5215 H(4)       42.4683   29.9684    4.2570 H         1 UNK         0.0000
   5216 H(5)       46.1654   27.8642    2.5902 H         1 UNK         0.0000
   5217 H(6)       41.2597   31.7340    3.5091 H         1 UNK         0.0000
   5218 H(7)       39.8059   34.0732    2.1418 H         1 UNK         0.0000
   5219 H(8)       39.4356   32.8355    3.2785 H         1 UNK         0.0000
   5220 H(9)       38.7069   32.8783    1.6863 H         1 UNK         0.0000
   5221 O(1)       32.7944   23.6323    7.7556 O.3       1 UNK         0.0000
   5222 O(2)       37.7683   27.5768    9.0824 O.2       1 UNK         0.0000
   5223 N(1)       37.1172   27.0525    6.9707 N.am      1 UNK         0.0000
   5224 C(1)       36.0099   26.2126    7.2247 C.ar      1 UNK         0.0000
   5225 C(2)       35.2871   26.2107    8.4175 C.ar      1 UNK         0.0000
   5226 C(3)       34.2094   25.3440    8.5742 C.ar      1 UNK         0.0000
   5227 C(4)       33.8391   24.4818    7.5453 C.ar      1 UNK         0.0000
   5228 C(5)       34.5424   24.5055    6.3416 C.ar      1 UNK         0.0000
   5229 C(6)       35.6203   25.3655    6.1867 C.ar      1 UNK         0.0000
   5230 C(7)       37.9246   27.6547    7.8589 C.2       1 UNK         0.0000
   5231 C(8)       39.0480   28.4562    7.2579 C.3       1 UNK         0.0000
   5232 H(1)       35.5655   26.8735    9.2275 H         1 UNK         0.0000
   5233 H(2)       33.6626   25.3547    9.5090 H         1 UNK         0.0000
   5234 H(3)       34.2495   23.8497    5.5310 H         1 UNK         0.0000
   5235 H(4)       36.1672   25.3819    5.2520 H         1 UNK         0.0000
   5236 H(5)       32.4700   23.2777    6.9188 H         1 UNK         0.0000
   5237 H(6)       37.3757   27.1475    5.9999 H         1 UNK         0.0000
   5238 H(7)       38.8296   29.4867    7.3672 H         1 UNK         0.0000
   5239 H(8)       39.1998   28.2490    6.2305 H         1 UNK         0.0000
   5240 H(9)       39.9286   28.2918    7.8227 H         1 UNK         0.0000
   5241 O(1)       40.0404   26.8192   18.2703 O.3       1 UNK         0.0000
   5242 O(2)       45.0143   22.8747   19.5971 O.2       1 UNK         0.0000
   5243 N(1)       44.3633   23.3990   17.4854 N.am      1 UNK         0.0000
   5244 C(1)       43.2559   24.2389   17.7395 C.ar      1 UNK         0.0000
   5245 C(2)       42.5331   24.2408   18.9323 C.ar      1 UNK         0.0000
   5246 C(3)       41.4554   25.1075   19.0889 C.ar      1 UNK         0.0000
   5247 C(4)       41.0851   25.9697   18.0600 C.ar      1 UNK         0.0000
   5248 C(5)       41.7885   25.9460   16.8563 C.ar      1 UNK         0.0000
   5249 C(6)       42.8663   25.0860   16.7014 C.ar      1 UNK         0.0000
   5250 C(7)       45.1706   22.7968   18.3737 C.2       1 UNK         0.0000
   5251 C(8)       46.2941   21.9953   17.7727 C.3       1 UNK         0.0000
   5252 H(1)       42.8116   23.5780   19.7422 H         1 UNK         0.0000
   5253 H(2)       40.9087   25.0968   20.0238 H         1 UNK         0.0000
   5254 H(3)       41.4955   26.6018   16.0457 H         1 UNK         0.0000
   5255 H(4)       43.4132   25.0696   15.7668 H         1 UNK         0.0000
   5256 H(5)       39.7161   27.1738   17.4335 H         1 UNK         0.0000
   5257 H(6)       44.6218   23.3040   16.5147 H         1 UNK         0.0000
   5258 H(7)       46.0756   20.9648   17.8820 H         1 UNK         0.0000
   5259 H(8)       46.4458   22.2025   16.7453 H         1 UNK         0.0000
   5260 H(9)       47.1746   22.1597   18.3375 H         1 UNK         0.0000
   5261 O(1)       39.5677   31.4057   19.4795 O.3       1 UNK         0.0000
   5262 O(2)       34.5938   27.4612   18.1527 O.2       1 UNK         0.0000
   5263 N(1)       35.2449   27.9855   20.2644 N.am      1 UNK         0.0000
   5264 C(1)       36.3522   28.8254   20.0104 C.ar      1 UNK         0.0000
   5265 C(2)       37.0750   28.8273   18.8176 C.ar      1 UNK         0.0000
   5266 C(3)       38.1527   29.6940   18.6609 C.ar      1 UNK         0.0000
   5267 C(4)       38.5230   30.5562   19.6898 C.ar      1 UNK         0.0000
   5268 C(5)       37.8196   30.5325   20.8935 C.ar      1 UNK         0.0000
   5269 C(6)       36.7418   29.6725   21.0484 C.ar      1 UNK         0.0000
   5270 C(7)       34.4375   27.3833   19.3762 C.2       1 UNK         0.0000
   5271 C(8)       33.3141   26.5818   19.9772 C.3       1 UNK         0.0000
   5272 H(1)       36.7966   28.1645   18.0076 H         1 UNK         0.0000
   5273 H(2)       38.6994   29.6833   17.7261 H         1 UNK         0.0000
   5274 H(3)       38.1126   31.1883   21.7041 H         1 UNK         0.0000
   5275 H(4)       36.1949   29.6561   21.9831 H         1 UNK         0.0000
   5276 H(5)       39.8921   31.7603   20.3163 H         1 UNK         0.0000
   5277 H(6)       34.9864   27.8905   21.2352 H         1 UNK         0.0000
   5278 H(7)       33.5325   25.5513   19.8678 H         1 UNK         0.0000
   5279 H(8)       33.1623   26.7890   21.0046 H         1 UNK         0.0000
   5280 H(9)       32.4335   26.7462   19.4124 H         1 UNK         0.0000
   5281 O(1)       43.8957   37.3918    8.9648 O.3       1 UNK         0.0000
   5282 O(2)       38.9218   41.3363    7.6380 O.2       1 UNK         0.0000
   5283 N(1)       39.5728   40.8120    9.7497 N.am      1 UNK         0.0000
   5284 C(1)       40.6801   39.9721    9.4956 C.ar      1 UNK         0.0000
   5285 C(2)       41.4030   39.9702    8.3028 C.ar      1 UNK         0.0000
   5286 C(3)       42.4806   39.1035    8.1462 C.ar      1 UNK         0.0000
   5287 C(4)       42.8510   38.2413    9.1751 C.ar      1 UNK         0.0000
   5288 C(5)       42.1476   38.2650   10.3788 C.ar      1 UNK         0.0000
   5289 C(6)       41.0698   39.1250   10.5337 C.ar      1 UNK         0.0000
   5290 C(7)       38.7655   41.4142    8.8614 C.2       1 UNK         0.0000
   5291 C(8)       37.6420   42.2157    9.4624 C.3       1 UNK         0.0000
   5292 H(1)       41.1245   40.6330    7.4929 H         1 UNK         0.0000
   5293 H(2)       43.0274   39.1142    7.2113 H         1 UNK         0.0000
   5294 H(3)       42.4406   37.6092   11.1894 H         1 UNK         0.0000
   5295 H(4)       40.5229   39.1414   11.4683 H         1 UNK         0.0000
   5296 H(5)       44.2200   37.0372    9.8016 H         1 UNK         0.0000
   5297 H(6)       39.3143   40.9070   10.7204 H         1 UNK         0.0000
   5298 H(7)       37.8605   43.2462    9.3531 H         1 UNK         0.0000
   5299 H(8)       37.4903   42.0085   10.4898 H         1 UNK         0.0000
   5300 H(9)       36.7615   42.0513    8.8976 H         1 UNK         0.0000
   5301 O(1)       33.7671   32.8053   14.7654 O.3       1 UNK         0.0000
   5302 O(2)       38.7410   36.7498   16.0922 O.2       1 UNK         0.0000
   5303 N(1)       38.0899   36.2255   13.9805 N.am      1 UNK         0.0000
   5304 C(1)       36.9826   35.3856   14.2346 C.ar      1 UNK         0.0000
   5305 C(2)       36.2598   35.3837   15.4274 C.ar      1 UNK         0.0000
   5306 C(3)       35.1821   34.5170   15.5840 C.ar      1 UNK         0.0000
   5307 C(4)       34.8118   33.6548   14.5551 C.ar      1 UNK         0.0000
   5308 C(5)       35.5151   33.6785   13.3514 C.ar      1 UNK         0.0000
   5309 C(6)       36.5930   34.5385   13.1965 C.ar      1 UNK         0.0000
   5310 C(7)       38.8973   36.8277   14.8687 C.2       1 UNK         0.0000
   5311 C(8)       40.0207   37.6292   14.2678 C.3       1 UNK         0.0000
   5312 H(1)       36.5382   36.0465   16.2373 H         1 UNK         0.0000
   5313 H(2)       34.6353   34.5277   16.5188 H         1 UNK         0.0000
   5314 H(3)       35.2222   33.0227   12.5408 H         1 UNK         0.0000
   5315 H(4)       37.1399   34.5549   12.2618 H         1 UNK         0.0000
   5316 H(5)       33.4427   32.4507   13.9286 H         1 UNK         0.0000
   5317 H(6)       38.3484   36.3205   13.0098 H         1 UNK         0.0000
   5318 H(7)       39.8023   38.6597   14.3771 H         1 UNK         0.0000
   5319 H(8)       40.1725   37.4220   13.2404 H         1 UNK         0.0000
   5320 H(9)       40.9012   37.4648   14.8326 H         1 UNK         0.0000
   5321 O(1)       38.0950   45.1652    4.2507 O.3       1 UNK         0.0000
   5322 O(2)       43.0689   41.2207    5.5774 O.2       1 UNK         0.0000
   5323 N(1)       42.4179   41.7450    3.4657 N.am      1 UNK         0.0000
   5324 C(1)       41.3106   42.5849    3.7198 C.ar      1 UNK         0.0000
   5325 C(2)       40.5877   42.5868    4.9126 C.ar      1 UNK         0.0000
   5326 C(3)       39.5101   43.4535    5.0693 C.ar      1 UNK         0.0000
   5327 C(4)       39.1397   44.3157    4.0404 C.ar      1 UNK         0.0000
   5328 C(5)       39.8431   44.2920    2.8367 C.ar      1 UNK         0.0000
   5329 C(6)       40.9209   43.4320    2.6817 C.ar      1 UNK         0.0000
   5330 C(7)       43.2252   41.1428    4.3540 C.2       1 UNK         0.0000
   5331 C(8)       44.3487   40.3413    3.7530 C.3       1 UNK         0.0000
   5332 H(1)       40.8662   41.9240    5.7226 H         1 UNK         0.0000
   5333 H(2)       38.9633   43.4428    6.0041 H         1 UNK         0.0000
   5334 H(3)       39.5501   44.9478    2.0261 H         1 UNK         0.0000
   5335 H(4)       41.4678   43.4156    1.7471 H         1 UNK         0.0000
   5336 H(5)       37.7707   45.5198    3.4139 H         1 UNK         0.0000
   5337 H(6)       42.6764   41.6500    2.4950 H         1 UNK         0.0000
   5338 H(7)       44.1302   39.3108    3.8623 H         1 UNK         0.0000
   5339 H(8)       44.5004   40.5485    2.7256 H         1 UNK         0.0000
   5340 H(9)       45.2292   40.5057    4.3178 H         1 UNK         0.0000
   5341 O(1)       37.6223   40.5787    5.4598 O.3       1 UNK         0.0000
   5342 O(2)       32.6484   36.6342    4.1331 O.2       1 UNK         0.0000
   5343 N(1)       33.2995   37.1585    6.2448 N.am      1 UNK         0.0000
   5344 C(1)       34.4068   37.9984    5.9907 C.ar      1 UNK         0.0000
   5345 C(2)       35.1296   38.0003    4.7979 C.ar      1 UNK         0.0000
   5346 C(3)       36.2073   38.8670    4.6412 C.ar      1 UNK         0.0000
   5347 C(4)       36.5776   39.7292    5.6701 C.ar      1 UNK         0.0000
   5348 C(5)       35.8743   39.7055    6.8738 C.ar      1 UNK         0.0000
   5349 C(6)       34.7964   38.8455    7.0288 C.ar      1 UNK         0.0000
   5350 C(7)       32.4921   36.5563    5.3565 C.2       1 UNK         0.0000
   5351 C(8)       31.3687   35.7548    5.9575 C.3       1 UNK         0.0000
   5352 H(1)       34.8512   37.3375    3.9879 H         1 UNK         0.0000
   5353 H(2)       36.7541   38.8563    3.7064 H         1 UNK         0.0000
   5354 H(3)       36.1672   40.3613    7.6844 H         1 UNK         0.0000
   5355 H(4)       34.2495   38.8291    7.9634 H         1 UNK         0.0000
   5356 H(5)       37.9467   40.9333    6.2966 H         1 UNK         0.0000
   5357 H(6)       33.0410   37.0635    7.2155 H         1 UNK         0.0000
   5358 H(7)       31.5871   34.7243    5.8482 H         1 UNK         0.0000
   5359 H(8)       31.2169   35.9620    6.9849 H         1 UNK         0.0000
   5360 H(9)       30.4881   35.9192    5.3927 H         1 UNK         0.0000
   5361 O(1)       44.8684   37.3918   15.9746 O.3       1 UNK         0.0000
   5362 O(2)       39.8945   41.3363   14.6478 O.2       1 UNK         0.0000
   5363 N(1)       40.5455   40.8120   16.7595 N.am      1 UNK         0.0000
   5364 C(1)       41.6528   39.9721   16.5055 C.ar      1 UNK         0.0000
   5365 C(2)       42.3757   39.9702   15.3126 C.ar      1 UNK         0.0000
   5366 C(3)       43.4533   39.1035   15.1560 C.ar      1 UNK         0.0000
   5367 C(4)       43.8236   38.2413   16.1849 C.ar      1 UNK         0.0000
   5368 C(5)       43.1203   38.2650   17.3886 C.ar      1 UNK         0.0000
   5369 C(6)       42.0425   39.1250   17.5435 C.ar      1 UNK         0.0000
   5370 C(7)       39.7382   41.4142   15.8713 C.2       1 UNK         0.0000
   5371 C(8)       38.6147   42.2157   16.4723 C.3       1 UNK         0.0000
   5372 H(1)       42.0972   40.6330   14.5027 H         1 UNK         0.0000
   5373 H(2)       44.0001   39.1142   14.2212 H         1 UNK         0.0000
   5374 H(3)       43.4132   37.6092   18.1992 H         1 UNK         0.0000
   5375 H(4)       41.4956   39.1414   18.4782 H         1 UNK         0.0000
   5376 H(5)       45.1927   37.0372   16.8114 H         1 UNK         0.0000
   5377 H(6)       40.2870   40.9070   17.7302 H         1 UNK         0.0000
   5378 H(7)       38.8332   43.2462   16.3629 H         1 UNK         0.0000
   5379 H(8)       38.4629   42.0085   17.4996 H         1 UNK         0.0000
   5380 H(9)       37.7342   42.0513   15.9074 H         1 UNK         0.0000
   5381 O(1)       46.3138   32.8053   21.7753 O.3       1 UNK         0.0000
   5382 O(2)       51.2877   36.7498   23.1020 O.2       1 UNK         0.0000
   5383 N(1)       50.6366   36.2255   20.9903 N.am      1 UNK         0.0000
   5384 C(1)       49.5293   35.3856   21.2444 C.ar      1 UNK         0.0000
   5385 C(2)       48.8065   35.3837   22.4372 C.ar      1 UNK         0.0000
   5386 C(3)       47.7288   34.5170   22.5939 C.ar      1 UNK         0.0000
   5387 C(4)       47.3585   33.6548   21.5650 C.ar      1 UNK         0.0000
   5388 C(5)       48.0618   33.6785   20.3613 C.ar      1 UNK         0.0000
   5389 C(6)       49.1396   34.5385   20.2063 C.ar      1 UNK         0.0000
   5390 C(7)       51.4440   36.8277   21.8786 C.2       1 UNK         0.0000
   5391 C(8)       52.5674   37.6292   21.2776 C.3       1 UNK         0.0000
   5392 H(1)       49.0849   36.0465   23.2472 H         1 UNK         0.0000
   5393 H(2)       47.1820   34.5277   23.5287 H         1 UNK         0.0000
   5394 H(3)       47.7689   33.0227   19.5507 H         1 UNK         0.0000
   5395 H(4)       49.6866   34.5549   19.2717 H         1 UNK         0.0000
   5396 H(5)       45.9894   32.4507   20.9385 H         1 UNK         0.0000
   5397 H(6)       50.8951   36.3205   20.0196 H         1 UNK         0.0000
   5398 H(7)       52.3490   38.6597   21.3869 H         1 UNK         0.0000
   5399 H(8)       52.7192   37.4220   20.2502 H         1 UNK         0.0000
   5400 H(9)       53.4479   37.4648   21.8424 H         1 UNK         0.0000
   5401 O(1)       39.0677   45.1652   11.2605 O.3       1 UNK         0.0000
   5402 O(2)       44.0416   41.2207   12.5873 O.2       1 UNK         0.0000
   5403 N(1)       43.3906   41.7450   10.4756 N.am      1 UNK         0.0000
   5404 C(1)       42.2832   42.5849   10.7296 C.ar      1 UNK         0.0000
   5405 C(2)       41.5604   42.5868   11.9225 C.ar      1 UNK         0.0000
   5406 C(3)       40.4827   43.4535   12.0791 C.ar      1 UNK         0.0000
   5407 C(4)       40.1124   44.3157   11.0502 C.ar      1 UNK         0.0000
   5408 C(5)       40.8158   44.2920    9.8465 C.ar      1 UNK         0.0000
   5409 C(6)       41.8936   43.4320    9.6916 C.ar      1 UNK         0.0000
   5410 C(7)       44.1979   41.1428   11.3638 C.2       1 UNK         0.0000
   5411 C(8)       45.3214   40.3413   10.7628 C.3       1 UNK         0.0000
   5412 H(1)       41.8389   41.9240   12.7324 H         1 UNK         0.0000
   5413 H(2)       39.9360   43.4428   13.0139 H         1 UNK         0.0000
   5414 H(3)       40.5228   44.9478    9.0359 H         1 UNK         0.0000
   5415 H(4)       42.4405   43.4156    8.7569 H         1 UNK         0.0000
   5416 H(5)       38.7434   45.5198   10.4237 H         1 UNK         0.0000
   5417 H(6)       43.6491   41.6500    9.5049 H         1 UNK         0.0000
   5418 H(7)       45.1029   39.3108   10.8722 H         1 UNK         0.0000
   5419 H(8)       45.4731   40.5485    9.7355 H         1 UNK         0.0000
   5420 H(9)       46.2019   40.5057   11.3277 H         1 UNK         0.0000
   5421 O(1)       50.1690   40.5787   12.4697 O.3       1 UNK         0.0000
   5422 O(2)       45.1951   36.6342   11.1429 O.2       1 UNK         0.0000
   5423 N(1)       45.8462   37.1585   13.2546 N.am      1 UNK         0.0000
   5424 C(1)       46.9535   37.9984   13.0005 C.ar      1 UNK         0.0000
   5425 C(2)       47.6763   38.0003   11.8077 C.ar      1 UNK         0.0000
   5426 C(3)       48.7540   38.8670   11.6511 C.ar      1 UNK         0.0000
   5427 C(4)       49.1243   39.7292   12.6800 C.ar      1 UNK         0.0000
   5428 C(5)       48.4209   39.7055   13.8837 C.ar      1 UNK         0.0000
   5429 C(6)       47.3431   38.8455   14.0386 C.ar      1 UNK         0.0000
   5430 C(7)       45.0388   36.5563   12.3664 C.2       1 UNK         0.0000
   5431 C(8)       43.9154   35.7548   12.9673 C.3       1 UNK         0.0000
   5432 H(1)       47.3979   37.3375   10.9978 H         1 UNK         0.0000
   5433 H(2)       49.3008   38.8563   10.7162 H         1 UNK         0.0000
   5434 H(3)       48.7139   40.3613   14.6943 H         1 UNK         0.0000
   5435 H(4)       46.7962   38.8291   14.9733 H         1 UNK         0.0000
   5436 H(5)       50.4934   40.9333   13.3065 H         1 UNK         0.0000
   5437 H(6)       45.5877   37.0635   14.2253 H         1 UNK         0.0000
   5438 H(7)       44.1338   34.7243   12.8580 H         1 UNK         0.0000
   5439 H(8)       43.7636   35.9620   13.9947 H         1 UNK         0.0000
   5440 H(9)       43.0348   35.9192   12.4025 H         1 UNK         0.0000
   5441 O(1)       45.8411   37.3918    1.7534 O.3       1 UNK         0.0000
   5442 O(2)       40.8672   41.3363    0.4267 O.2       1 UNK         0.0000
   5443 N(1)       41.5182   40.8120    2.5384 N.am      1 UNK         0.0000
   5444 C(1)       42.6255   39.9721    2.2843 C.ar      1 UNK         0.0000
   5445 C(2)       43.3484   39.9702    1.0915 C.ar      1 UNK         0.0000
   5446 C(3)       44.4260   39.1035    0.9348 C.ar      1 UNK         0.0000
   5447 C(4)       44.7963   38.2413    1.9637 C.ar      1 UNK         0.0000
   5448 C(5)       44.0930   38.2650    3.1674 C.ar      1 UNK         0.0000
   5449 C(6)       43.0152   39.1250    3.3223 C.ar      1 UNK         0.0000
   5450 C(7)       40.7109   41.4142    1.6501 C.2       1 UNK         0.0000
   5451 C(8)       39.5874   42.2157    2.2511 C.3       1 UNK         0.0000
   5452 H(1)       43.0699   40.6330    0.2815 H         1 UNK         0.0000
   5453 H(2)       44.9728   39.1142    0.0000 H         1 UNK         0.0000
   5454 H(3)       44.3859   37.6092    3.9780 H         1 UNK         0.0000
   5455 H(4)       42.4683   39.1414    4.2570 H         1 UNK         0.0000
   5456 H(5)       46.1654   37.0372    2.5902 H         1 UNK         0.0000
   5457 H(6)       41.2597   40.9070    3.5091 H         1 UNK         0.0000
   5458 H(7)       39.8059   43.2462    2.1418 H         1 UNK         0.0000
   5459 H(8)       39.4356   42.0085    3.2785 H         1 UNK         0.0000
   5460 H(9)       38.7069   42.0513    1.6863 H         1 UNK         0.0000
   5461 O(1)       32.7944   32.8053    7.7556 O.3       1 UNK         0.0000
   5462 O(2)       37.7683   36.7498    9.0824 O.2       1 UNK         0.0000
   5463 N(1)       37.1172   36.2255    6.9707 N.am      1 UNK         0.0000
   5464 C(1)       36.0099   35.3856    7.2247 C.ar      1 UNK         0.0000
   5465 C(2)       35.2871   35.3837    8.4175 C.ar      1 UNK         0.0000
   5466 C(3)       34.2094   34.5170    8.5742 C.ar      1 UNK         0.0000
   5467 C(4)       33.8391   33.6548    7.5453 C.ar      1 UNK         0.0000
   5468 C(5)       34.5424   33.6785    6.3416 C.ar      1 UNK         0.0000
   5469 C(6)       35.6203   34.5385    6.1867 C.ar      1 UNK         0.0000
   5470 C(7)       37.9246   36.8277    7.8589 C.2       1 UNK         0.0000
   5471 C(8)       39.0480   37.6292    7.2579 C.3       1 UNK         0.0000
   5472 H(1)       35.5655   36.0465    9.2275 H         1 UNK         0.0000
   5473 H(2)       33.6626   34.5277    9.5090 H         1 UNK         0.0000
   5474 H(3)       34.2495   33.0227    5.5310 H         1 UNK         0.0000
   5475 H(4)       36.1672   34.5549    5.2520 H         1 UNK         0.0000
   5476 H(5)       32.4700   32.4507    6.9188 H         1 UNK         0.0000
   5477 H(6)       37.3757   36.3205    5.9999 H         1 UNK         0.0000
   5478 H(7)       38.8296   38.6597    7.3672 H         1 UNK         0.0000
   5479 H(8)       39.1998   37.4220    6.2305 H         1 UNK         0.0000
   5480 H(9)       39.9286   37.4648    7.8227 H         1 UNK         0.0000
   5481 O(1)       40.0404   35.9922   18.2703 O.3       1 UNK         0.0000
   5482 O(2)       45.0143   32.0477   19.5971 O.2       1 UNK         0.0000
   5483 N(1)       44.3633   32.5720   17.4854 N.am      1 UNK         0.0000
   5484 C(1)       43.2559   33.4119   17.7395 C.ar      1 UNK         0.0000
   5485 C(2)       42.5331   33.4138   18.9323 C.ar      1 UNK         0.0000
   5486 C(3)       41.4554   34.2805   19.0889 C.ar      1 UNK         0.0000
   5487 C(4)       41.0851   35.1427   18.0600 C.ar      1 UNK         0.0000
   5488 C(5)       41.7885   35.1190   16.8563 C.ar      1 UNK         0.0000
   5489 C(6)       42.8663   34.2590   16.7014 C.ar      1 UNK         0.0000
   5490 C(7)       45.1706   31.9698   18.3737 C.2       1 UNK         0.0000
   5491 C(8)       46.2941   31.1683   17.7727 C.3       1 UNK         0.0000
   5492 H(1)       42.8116   32.7510   19.7422 H         1 UNK         0.0000
   5493 H(2)       40.9087   34.2698   20.0238 H         1 UNK         0.0000
   5494 H(3)       41.4955   35.7748   16.0457 H         1 UNK         0.0000
   5495 H(4)       43.4132   34.2426   15.7668 H         1 UNK         0.0000
   5496 H(5)       39.7161   36.3468   17.4335 H         1 UNK         0.0000
   5497 H(6)       44.6218   32.4770   16.5147 H         1 UNK         0.0000
   5498 H(7)       46.0756   30.1378   17.8820 H         1 UNK         0.0000
   5499 H(8)       46.4458   31.3755   16.7453 H         1 UNK         0.0000
   5500 H(9)       47.1746   31.3327   18.3375 H         1 UNK         0.0000
   5501 O(1)       39.5677   40.5787   19.4795 O.3       1 UNK         0.0000
   5502 O(2)       34.5938   36.6342   18.1527 O.2       1 UNK         0.0000
   5503 N(1)       35.2449   37.1585   20.2644 N.am      1 UNK         0.0000
   5504 C(1)       36.3522   37.9984   20.0104 C.ar      1 UNK         0.0000
   5505 C(2)       37.0750   38.0003   18.8176 C.ar      1 UNK         0.0000
   5506 C(3)       38.1527   38.8670   18.6609 C.ar      1 UNK         0.0000
   5507 C(4)       38.5230   39.7292   19.6898 C.ar      1 UNK         0.0000
   5508 C(5)       37.8196   39.7055   20.8935 C.ar      1 UNK         0.0000
   5509 C(6)       36.7418   38.8455   21.0484 C.ar      1 UNK         0.0000
   5510 C(7)       34.4375   36.5563   19.3762 C.2       1 UNK         0.0000
   5511 C(8)       33.3141   35.7548   19.9772 C.3       1 UNK         0.0000
   5512 H(1)       36.7966   37.3375   18.0076 H         1 UNK         0.0000
   5513 H(2)       38.6994   38.8563   17.7261 H         1 UNK         0.0000
   5514 H(3)       38.1126   40.3613   21.7041 H         1 UNK         0.0000
   5515 H(4)       36.1949   38.8291   21.9831 H         1 UNK         0.0000
   5516 H(5)       39.8921   40.9333   20.3163 H         1 UNK         0.0000
   5517 H(6)       34.9864   37.0635   21.2352 H         1 UNK         0.0000
   5518 H(7)       33.5325   34.7243   19.8678 H         1 UNK         0.0000
   5519 H(8)       33.1623   35.9620   21.0046 H         1 UNK         0.0000
   5520 H(9)       32.4335   35.9192   19.4124 H         1 UNK         0.0000
   5521 O(1)       43.8957   46.5648    8.9648 O.3       1 UNK         0.0000
   5522 O(2)       38.9218   50.5093    7.6380 O.2       1 UNK         0.0000
   5523 N(1)       39.5728   49.9850    9.7497 N.am      1 UNK         0.0000
   5524 C(1)       40.6801   49.1451    9.4956 C.ar      1 UNK         0.0000
   5525 C(2)       41.4030   49.1432    8.3028 C.ar      1 UNK         0.0000
   5526 C(3)       42.4806   48.2765    8.1462 C.ar      1 UNK         0.0000
   5527 C(4)       42.8510   47.4143    9.1751 C.ar      1 UNK         0.0000
   5528 C(5)       42.1476   47.4380   10.3788 C.ar      1 UNK         0.0000
   5529 C(6)       41.0698   48.2980   10.5337 C.ar      1 UNK         0.0000
   5530 C(7)       38.7655   50.5872    8.8614 C.2       1 UNK         0.0000
   5531 C(8)       37.6420   51.3887    9.4624 C.3       1 UNK         0.0000
   5532 H(1)       41.1245   49.8060    7.4929 H         1 UNK         0.0000
   5533 H(2)       43.0274   48.2872    7.2113 H         1 UNK         0.0000
   5534 H(3)       42.4406   46.7822   11.1894 H         1 UNK         0.0000
   5535 H(4)       40.5229   48.3144   11.4683 H         1 UNK         0.0000
   5536 H(5)       44.2200   46.2102    9.8016 H         1 UNK         0.0000
   5537 H(6)       39.3143   50.0801   10.7204 H         1 UNK         0.0000
   5538 H(7)       37.8605   52.4192    9.3531 H         1 UNK         0.0000
   5539 H(8)       37.4903   51.1815   10.4898 H         1 UNK         0.0000
   5540 H(9)       36.7615   51.2243    8.8976 H         1 UNK         0.0000
   5541 O(1)       33.7671   41.9783   14.7654 O.3       1 UNK         0.0000
   5542 O(2)       38.7410   45.9228   16.0922 O.2       1 UNK         0.0000
   5543 N(1)       38.0899   45.3985   13.9805 N.am      1 UNK         0.0000
   5544 C(1)       36.9826   44.5586   14.2346 C.ar      1 UNK         0.0000
   5545 C(2)       36.2598   44.5567   15.4274 C.ar      1 UNK         0.0000
   5546 C(3)       35.1821   43.6900   15.5840 C.ar      1 UNK         0.0000
   5547 C(4)       34.8118   42.8278   14.5551 C.ar      1 UNK         0.0000
   5548 C(5)       35.5151   42.8515   13.3514 C.ar      1 UNK         0.0000
   5549 C(6)       36.5930   43.7115   13.1965 C.ar      1 UNK         0.0000
   5550 C(7)       38.8973   46.0007   14.8687 C.2       1 UNK         0.0000
   5551 C(8)       40.0207   46.8022   14.2678 C.3       1 UNK         0.0000
   5552 H(1)       36.5382   45.2195   16.2373 H         1 UNK         0.0000
   5553 H(2)       34.6353   43.7007   16.5188 H         1 UNK         0.0000
   5554 H(3)       35.2222   42.1957   12.5408 H         1 UNK         0.0000
   5555 H(4)       37.1399   43.7279   12.2618 H         1 UNK         0.0000
   5556 H(5)       33.4427   41.6237   13.9286 H         1 UNK         0.0000
   5557 H(6)       38.3484   45.4936   13.0098 H         1 UNK         0.0000
   5558 H(7)       39.8023   47.8327   14.3771 H         1 UNK         0.0000
   5559 H(8)       40.1725   46.5950   13.2404 H         1 UNK         0.0000
   5560 H(9)       40.9012   46.6378   14.8326 H         1 UNK         0.0000
   5561 O(1)       38.0950   54.3382    4.2507 O.3       1 UNK         0.0000
   5562 O(2)       43.0689   50.3937    5.5774 O.2       1 UNK         0.0000
   5563 N(1)       42.4179   50.9180    3.4657 N.am      1 UNK         0.0000
   5564 C(1)       41.3106   51.7579    3.7198 C.ar      1 UNK         0.0000
   5565 C(2)       40.5877   51.7598    4.9126 C.ar      1 UNK         0.0000
   5566 C(3)       39.5101   52.6265    5.0693 C.ar      1 UNK         0.0000
   5567 C(4)       39.1397   53.4887    4.0404 C.ar      1 UNK         0.0000
   5568 C(5)       39.8431   53.4650    2.8367 C.ar      1 UNK         0.0000
   5569 C(6)       40.9209   52.6050    2.6817 C.ar      1 UNK         0.0000
   5570 C(7)       43.2252   50.3158    4.3540 C.2       1 UNK         0.0000
   5571 C(8)       44.3487   49.5143    3.7530 C.3       1 UNK         0.0000
   5572 H(1)       40.8662   51.0970    5.7226 H         1 UNK         0.0000
   5573 H(2)       38.9633   52.6158    6.0041 H         1 UNK         0.0000
   5574 H(3)       39.5501   54.1208    2.0261 H         1 UNK         0.0000
   5575 H(4)       41.4678   52.5886    1.7471 H         1 UNK         0.0000
   5576 H(5)       37.7707   54.6928    3.4139 H         1 UNK         0.0000
   5577 H(6)       42.6764   50.8230    2.4950 H         1 UNK         0.0000
   5578 H(7)       44.1302   48.4838    3.8623 H         1 UNK         0.0000
   5579 H(8)       44.5004   49.7215    2.7256 H         1 UNK         0.0000
   5580 H(9)       45.2292   49.6787    4.3178 H         1 UNK         0.0000
   5581 O(1)       37.6223   49.7517    5.4598 O.3       1 UNK         0.0000
   5582 O(2)       32.6484   45.8072    4.1331 O.2       1 UNK         0.0000
   5583 N(1)       33.2995   46.3315    6.2448 N.am      1 UNK         0.0000
   5584 C(1)       34.4068   47.1714    5.9907 C.ar      1 UNK         0.0000
   5585 C(2)       35.1296   47.1733    4.7979 C.ar      1 UNK         0.0000
   5586 C(3)       36.2073   48.0400    4.6412 C.ar      1 UNK         0.0000
   5587 C(4)       36.5776   48.9022    5.6701 C.ar      1 UNK         0.0000
   5588 C(5)       35.8743   48.8785    6.8738 C.ar      1 UNK         0.0000
   5589 C(6)       34.7964   48.0185    7.0288 C.ar      1 UNK         0.0000
   5590 C(7)       32.4921   45.7293    5.3565 C.2       1 UNK         0.0000
   5591 C(8)       31.3687   44.9278    5.9575 C.3       1 UNK         0.0000
   5592 H(1)       34.8512   46.5105    3.9879 H         1 UNK         0.0000
   5593 H(2)       36.7541   48.0293    3.7064 H         1 UNK         0.0000
   5594 H(3)       36.1672   49.5343    7.6844 H         1 UNK         0.0000
   5595 H(4)       34.2495   48.0021    7.9634 H         1 UNK         0.0000
   5596 H(5)       37.9467   50.1063    6.2966 H         1 UNK         0.0000
   5597 H(6)       33.0410   46.2365    7.2155 H         1 UNK         0.0000
   5598 H(7)       31.5871   43.8973    5.8482 H         1 UNK         0.0000
   5599 H(8)       31.2169   45.1350    6.9849 H         1 UNK         0.0000
   5600 H(9)       30.4881   45.0922    5.3927 H         1 UNK         0.0000
   5601 O(1)       44.8684   46.5648   15.9746 O.3       1 UNK         0.0000
   5602 O(2)       39.8945   50.5093   14.6478 O.2       1 UNK         0.0000
   5603 N(1)       40.5455   49.9850   16.7595 N.am      1 UNK         0.0000
   5604 C(1)       41.6528   49.1451   16.5055 C.ar      1 UNK         0.0000
   5605 C(2)       42.3757   49.1432   15.3126 C.ar      1 UNK         0.0000
   5606 C(3)       43.4533   48.2765   15.1560 C.ar      1 UNK         0.0000
   5607 C(4)       43.8236   47.4143   16.1849 C.ar      1 UNK         0.0000
   5608 C(5)       43.1203   47.4380   17.3886 C.ar      1 UNK         0.0000
   5609 C(6)       42.0425   48.2980   17.5435 C.ar      1 UNK         0.0000
   5610 C(7)       39.7382   50.5872   15.8713 C.2       1 UNK         0.0000
   5611 C(8)       38.6147   51.3887   16.4723 C.3       1 UNK         0.0000
   5612 H(1)       42.0972   49.8060   14.5027 H         1 UNK         0.0000
   5613 H(2)       44.0001   48.2872   14.2212 H         1 UNK         0.0000
   5614 H(3)       43.4132   46.7822   18.1992 H         1 UNK         0.0000
   5615 H(4)       41.4956   48.3144   18.4782 H         1 UNK         0.0000
   5616 H(5)       45.1927   46.2102   16.8114 H         1 UNK         0.0000
   5617 H(6)       40.2870   50.0801   17.7302 H         1 UNK         0.0000
   5618 H(7)       38.8332   52.4192   16.3629 H         1 UNK         0.0000
   5619 H(8)       38.4629   51.1815   17.4996 H         1 UNK         0.0000
   5620 H(9)       37.7342   51.2243   15.9074 H         1 UNK         0.0000
   5621 O(1)       46.3138   41.9783   21.7753 O.3       1 UNK         0.0000
   5622 O(2)       51.2877   45.9228   23.1020 O.2       1 UNK         0.0000
   5623 N(1)       50.6366   45.3985   20.9903 N.am      1 UNK         0.0000
   5624 C(1)       49.5293   44.5586   21.2444 C.ar      1 UNK         0.0000
   5625 C(2)       48.8065   44.5567   22.4372 C.ar      1 UNK         0.0000
   5626 C(3)       47.7288   43.6900   22.5939 C.ar      1 UNK         0.0000
   5627 C(4)       47.3585   42.8278   21.5650 C.ar      1 UNK         0.0000
   5628 C(5)       48.0618   42.8515   20.3613 C.ar      1 UNK         0.0000
   5629 C(6)       49.1396   43.7115   20.2063 C.ar      1 UNK         0.0000
   5630 C(7)       51.4440   46.0007   21.8786 C.2       1 UNK         0.0000
   5631 C(8)       52.5674   46.8022   21.2776 C.3       1 UNK         0.0000
   5632 H(1)       49.0849   45.2195   23.2472 H         1 UNK         0.0000
   5633 H(2)       47.1820   43.7007   23.5287 H         1 UNK         0.0000
   5634 H(3)       47.7689   42.1957   19.5507 H         1 UNK         0.0000
   5635 H(4)       49.6866   43.7279   19.2717 H         1 UNK         0.0000
   5636 H(5)       45.9894   41.6237   20.9385 H         1 UNK         0.0000
   5637 H(6)       50.8951   45.4936   20.0196 H         1 UNK         0.0000
   5638 H(7)       52.3490   47.8327   21.3869 H         1 UNK         0.0000
   5639 H(8)       52.7192   46.5950   20.2502 H         1 UNK         0.0000
   5640 H(9)       53.4479   46.6378   21.8424 H         1 UNK         0.0000
   5641 O(1)       39.0677   54.3382   11.2605 O.3       1 UNK         0.0000
   5642 O(2)       44.0416   50.3937   12.5873 O.2       1 UNK         0.0000
   5643 N(1)       43.3906   50.9180   10.4756 N.am      1 UNK         0.0000
   5644 C(1)       42.2832   51.7579   10.7296 C.ar      1 UNK         0.0000
   5645 C(2)       41.5604   51.7598   11.9225 C.ar      1 UNK         0.0000
   5646 C(3)       40.4827   52.6265   12.0791 C.ar      1 UNK         0.0000
   5647 C(4)       40.1124   53.4887   11.0502 C.ar      1 UNK         0.0000
   5648 C(5)       40.8158   53.4650    9.8465 C.ar      1 UNK         0.0000
   5649 C(6)       41.8936   52.6050    9.6916 C.ar      1 UNK         0.0000
   5650 C(7)       44.1979   50.3158   11.3638 C.2       1 UNK         0.0000
   5651 C(8)       45.3214   49.5143   10.7628 C.3       1 UNK         0.0000
   5652 H(1)       41.8389   51.0970   12.7324 H         1 UNK         0.0000
   5653 H(2)       39.9360   52.6158   13.0139 H         1 UNK         0.0000
   5654 H(3)       40.5228   54.1208    9.0359 H         1 UNK         0.0000
   5655 H(4)       42.4405   52.5886    8.7569 H         1 UNK         0.0000
   5656 H(5)       38.7434   54.6928   10.4237 H         1 UNK         0.0000
   5657 H(6)       43.6491   50.8230    9.5049 H         1 UNK         0.0000
   5658 H(7)       45.1029   48.4838   10.8722 H         1 UNK         0.0000
   5659 H(8)       45.4731   49.7215    9.7355 H         1 UNK         0.0000
   5660 H(9)       46.2019   49.6787   11.3277 H         1 UNK         0.0000
   5661 O(1)       50.1690   49.7517   12.4697 O.3       1 UNK         0.0000
   5662 O(2)       45.1951   45.8072   11.1429 O.2       1 UNK         0.0000
   5663 N(1)       45.8462   46.3315   13.2546 N.am      1 UNK         0.0000
   5664 C(1)       46.9535   47.1714   13.0005 C.ar      1 UNK         0.0000
   5665 C(2)       47.6763   47.1733   11.8077 C.ar      1 UNK         0.0000
   5666 C(3)       48.7540   48.0400   11.6511 C.ar      1 UNK         0.0000
   5667 C(4)       49.1243   48.9022   12.6800 C.ar      1 UNK         0.0000
   5668 C(5)       48.4209   48.8785   13.8837 C.ar      1 UNK         0.0000
   5669 C(6)       47.3431   48.0185   14.0386 C.ar      1 UNK         0.0000
   5670 C(7)       45.0388   45.7293   12.3664 C.2       1 UNK         0.0000
   5671 C(8)       43.9154   44.9278   12.9673 C.3       1 UNK         0.0000
   5672 H(1)       47.3979   46.5105   10.9978 H         1 UNK         0.0000
   5673 H(2)       49.3008   48.0293   10.7162 H         1 UNK         0.0000
   5674 H(3)       48.7139   49.5343   14.6943 H         1 UNK         0.0000
   5675 H(4)       46.7962   48.0021   14.9733 H         1 UNK         0.0000
   5676 H(5)       50.4934   50.1063   13.3065 H         1 UNK         0.0000
   5677 H(6)       45.5877   46.2365   14.2253 H         1 UNK         0.0000
   5678 H(7)       44.1338   43.8973   12.8580 H         1 UNK         0.0000
   5679 H(8)       43.7636   45.1350   13.9947 H         1 UNK         0.0000
   5680 H(9)       43.0348   45.0922   12.4025 H         1 UNK         0.0000
   5681 O(1)       45.8411   46.5648    1.7534 O.3       1 UNK         0.0000
   5682 O(2)       40.8672   50.5093    0.4267 O.2       1 UNK         0.0000
   5683 N(1)       41.5182   49.9850    2.5384 N.am      1 UNK         0.0000
   5684 C(1)       42.6255   49.1451    2.2843 C.ar      1 UNK         0.0000
   5685 C(2)       43.3484   49.1432    1.0915 C.ar      1 UNK         0.0000
   5686 C(3)       44.4260   48.2765    0.9348 C.ar      1 UNK         0.0000
   5687 C(4)       44.7963   47.4143    1.9637 C.ar      1 UNK         0.0000
   5688 C(5)       44.0930   47.4380    3.1674 C.ar      1 UNK         0.0000
   5689 C(6)       43.0152   48.2980    3.3223 C.ar      1 UNK         0.0000
   5690 C(7)       40.7109   50.5872    1.6501 C.2       1 UNK         0.0000
   5691 C(8)       39.5874   51.3887    2.2511 C.3       1 UNK         0.0000
   5692 H(1)       43.0699   49.8060    0.2815 H         1 UNK         0.0000
   5693 H(2)       44.9728   48.2872    0.0000 H         1 UNK         0.0000
   5694 H(3)       44.3859   46.7822    3.9780 H         1 UNK         0.0000
   5695 H(4)       42.4683   48.3144    4.2570 H         1 UNK         0.0000
   5696 H(5)       46.1654   46.2102    2.5902 H         1 UNK         0.0000
   5697 H(6)       41.2597   50.0801    3.5091 H         1 UNK         0.0000
   5698 H(7)       39.8059   52.4192    2.1418 H         1 UNK         0.0000
   5699 H(8)       39.4356   51.1815    3.2785 H         1 UNK         0.0000
   5700 H(9)       38.7069   51.2243    1.6863 H         1 UNK         0.0000
   5701 O(1)       32.7944   41.9783    7.7556 O.3       1 UNK         0.0000
   5702 O(2)       37.7683   45.9228    9.0824 O.2       1 UNK         0.0000
   5703 N(1)       37.1172   45.3985    6.9707 N.am      1 UNK         0.0000
   5704 C(1)       36.0099   44.5586    7.2247 C.ar      1 UNK         0.0000
   5705 C(2)       35.2871   44.5567    8.4175 C.ar      1 UNK         0.0000
   5706 C(3)       34.2094   43.6900    8.5742 C.ar      1 UNK         0.0000
   5707 C(4)       33.8391   42.8278    7.5453 C.ar      1 UNK         0.0000
   5708 C(5)       34.5424   42.8515    6.3416 C.ar      1 UNK         0.0000
   5709 C(6)       35.6203   43.7115    6.1867 C.ar      1 UNK         0.0000
   5710 C(7)       37.9246   46.0007    7.8589 C.2       1 UNK         0.0000
   5711 C(8)       39.0480   46.8022    7.2579 C.3       1 UNK         0.0000
   5712 H(1)       35.5655   45.2195    9.2275 H         1 UNK         0.0000
   5713 H(2)       33.6626   43.7007    9.5090 H         1 UNK         0.0000
   5714 H(3)       34.2495   42.1957    5.5310 H         1 UNK         0.0000
   5715 H(4)       36.1672   43.7279    5.2520 H         1 UNK         0.0000
   5716 H(5)       32.4700   41.6237    6.9188 H         1 UNK         0.0000
   5717 H(6)       37.3757   45.4936    5.9999 H         1 UNK         0.0000
   5718 H(7)       38.8296   47.8327    7.3672 H         1 UNK         0.0000
   5719 H(8)       39.1998   46.5950    6.2305 H         1 UNK         0.0000
   5720 H(9)       39.9286   46.6378    7.8227 H         1 UNK         0.0000
   5721 O(1)       40.0404   45.1652   18.2703 O.3       1 UNK         0.0000
   5722 O(2)       45.0143   41.2207   19.5971 O.2       1 UNK         0.0000
   5723 N(1)       44.3633   41.7450   17.4854 N.am      1 UNK         0.0000
   5724 C(1)       43.2559   42.5849   17.7395 C.ar      1 UNK         0.0000
   5725 C(2)       42.5331   42.5868   18.9323 C.ar      1 UNK         0.0000
   5726 C(3)       41.4554   43.4535   19.0889 C.ar      1 UNK         0.0000
   5727 C(4)       41.0851   44.3157   18.0600 C.ar      1 UNK         0.0000
   5728 C(5)       41.7885   44.2920   16.8563 C.ar      1 UNK         0.0000
   5729 C(6)       42.8663   43.4320   16.7014 C.ar      1 UNK         0.0000
   5730 C(7)       45.1706   41.1428   18.3737 C.2       1 UNK         0.0000
   5731 C(8)       46.2941   40.3413   17.7727 C.3       1 UNK         0.0000
   5732 H(1)       42.8116   41.9240   19.7422 H         1 UNK         0.0000
   5733 H(2)       40.9087   43.4428   20.0238 H         1 UNK         0.0000
   5734 H(3)       41.4955   44.9478   16.0457 H         1 UNK         0.0000
   5735 H(4)       43.4132   43.4156   15.7668 H         1 UNK         0.0000
   5736 H(5)       39.7161   45.5198   17.4335 H         1 UNK         0.0000
   5737 H(6)       44.6218   41.6500   16.5147 H         1 UNK         0.0000
   5738 H(7)       46.0756   39.3108   17.8820 H         1 UNK         0.0000
   5739 H(8)       46.4458   40.5485   16.7453 H         1 UNK         0.0000
   5740 H(9)       47.1746   40.5057   18.3375 H         1 UNK         0.0000
   5741 O(1)       39.5677   49.7517   19.4795 O.3       1 UNK         0.0000
   5742 O(2)       34.5938   45.8072   18.1527 O.2       1 UNK         0.0000
   5743 N(1)       35.2449   46.3315   20.2644 N.am      1 UNK         0.0000
   5744 C(1)       36.3522   47.1714   20.0104 C.ar      1 UNK         0.0000
   5745 C(2)       37.0750   47.1733   18.8176 C.ar      1 UNK         0.0000
   5746 C(3)       38.1527   48.0400   18.6609 C.ar      1 UNK         0.0000
   5747 C(4)       38.5230   48.9022   19.6898 C.ar      1 UNK         0.0000
   5748 C(5)       37.8196   48.8785   20.8935 C.ar      1 UNK         0.0000
   5749 C(6)       36.7418   48.0185   21.0484 C.ar      1 UNK         0.0000
   5750 C(7)       34.4375   45.7293   19.3762 C.2       1 UNK         0.0000
   5751 C(8)       33.3141   44.9278   19.9772 C.3       1 UNK         0.0000
   5752 H(1)       36.7966   46.5105   18.0076 H         1 UNK         0.0000
   5753 H(2)       38.6994   48.0293   17.7261 H         1 UNK         0.0000
   5754 H(3)       38.1126   49.5343   21.7041 H         1 UNK         0.0000
   5755 H(4)       36.1949   48.0021   21.9831 H         1 UNK         0.0000
   5756 H(5)       39.8921   50.1063   20.3163 H         1 UNK         0.0000
   5757 H(6)       34.9864   46.2365   21.2352 H         1 UNK         0.0000
   5758 H(7)       33.5325   43.8973   19.8678 H         1 UNK         0.0000
   5759 H(8)       33.1623   45.1350   21.0046 H         1 UNK         0.0000
   5760 H(9)       32.4335   45.0922   19.4124 H         1 UNK         0.0000
   5761 O(1)       55.4697    0.6998    8.9648 O.3       1 UNK         0.0000
   5762 O(2)       50.4958    4.6443    7.6380 O.2       1 UNK         0.0000
   5763 N(1)       51.1468    4.1200    9.7497 N.am      1 UNK         0.0000
   5764 C(1)       52.2541    3.2801    9.4956 C.ar      1 UNK         0.0000
   5765 C(2)       52.9770    3.2782    8.3028 C.ar      1 UNK         0.0000
   5766 C(3)       54.0546    2.4115    8.1462 C.ar      1 UNK         0.0000
   5767 C(4)       54.4250    1.5493    9.1751 C.ar      1 UNK         0.0000
   5768 C(5)       53.7216    1.5730   10.3788 C.ar      1 UNK         0.0000
   5769 C(6)       52.6438    2.4330   10.5337 C.ar      1 UNK         0.0000
   5770 C(7)       50.3395    4.7222    8.8614 C.2       1 UNK         0.0000
   5771 C(8)       49.2160    5.5237    9.4624 C.3       1 UNK         0.0000
   5772 H(1)       52.6985    3.9410    7.4929 H         1 UNK         0.0000
   5773 H(2)       54.6014    2.4222    7.2113 H         1 UNK         0.0000
   5774 H(3)       54.0146    0.9172   11.1894 H         1 UNK         0.0000
   5775 H(4)       52.0969    2.4494   11.4683 H         1 UNK         0.0000
   5776 H(5)       55.7940    0.3452    9.8016 H         1 UNK         0.0000
   5777 H(6)       50.8883    4.2150   10.7204 H         1 UNK         0.0000
   5778 H(7)       49.4345    6.5542    9.3531 H         1 UNK         0.0000
   5779 H(8)       49.0643    5.3165   10.4898 H         1 UNK         0.0000
   5780 H(9)       48.3355    5.3593    8.8976 H         1 UNK         0.0000
   5781 O(1)       45.3411   -3.8867   14.7654 O.3       1 UNK         0.0000
   5782 O(2)       50.3150    0.0578   16.0922 O.2       1 UNK         0.0000
   5783 N(1)       49.6639   -0.4665   13.9805 N.am      1 UNK         0.0000
   5784 C(1)       48.5566   -1.3064   14.2346 C.ar      1 UNK         0.0000
   5785 C(2)       47.8338   -1.3083   15.4274 C.ar      1 UNK         0.0000
   5786 C(3)       46.7561   -2.1750   15.5840 C.ar      1 UNK         0.0000
   5787 C(4)       46.3858   -3.0372   14.5551 C.ar      1 UNK         0.0000
   5788 C(5)       47.0891   -3.0135   13.3514 C.ar      1 UNK         0.0000
   5789 C(6)       48.1670   -2.1535   13.1965 C.ar      1 UNK         0.0000
   5790 C(7)       50.4713    0.1357   14.8687 C.2       1 UNK         0.0000
   5791 C(8)       51.5947    0.9372   14.2678 C.3       1 UNK         0.0000
   5792 H(1)       48.1122   -0.6455   16.2373 H         1 UNK         0.0000
   5793 H(2)       46.2093   -2.1643   16.5188 H         1 UNK         0.0000
   5794 H(3)       46.7962   -3.6693   12.5408 H         1 UNK         0.0000
   5795 H(4)       48.7139   -2.1371   12.2618 H         1 UNK         0.0000
   5796 H(5)       45.0167   -4.2413   13.9286 H         1 UNK         0.0000
   5797 H(6)       49.9224   -0.3715   13.0098 H         1 UNK         0.0000
   5798 H(7)       51.3763    1.9677   14.3771 H         1 UNK         0.0000
   5799 H(8)       51.7465    0.7300   13.2404 H         1 UNK         0.0000
   5800 H(9)       52.4752    0.7728   14.8326 H         1 UNK         0.0000
   5801 O(1)       49.6690    8.4732    4.2507 O.3       1 UNK         0.0000
   5802 O(2)       54.6429    4.5287    5.5774 O.2       1 UNK         0.0000
   5803 N(1)       53.9919    5.0530    3.4657 N.am      1 UNK         0.0000
   5804 C(1)       52.8846    5.8929    3.7198 C.ar      1 UNK         0.0000
   5805 C(2)       52.1617    5.8948    4.9126 C.ar      1 UNK         0.0000
   5806 C(3)       51.0841    6.7615    5.0693 C.ar      1 UNK         0.0000
   5807 C(4)       50.7137    7.6237    4.0404 C.ar      1 UNK         0.0000
   5808 C(5)       51.4171    7.6000    2.8367 C.ar      1 UNK         0.0000
   5809 C(6)       52.4949    6.7400    2.6817 C.ar      1 UNK         0.0000
   5810 C(7)       54.7992    4.4508    4.3540 C.2       1 UNK         0.0000
   5811 C(8)       55.9227    3.6493    3.7530 C.3       1 UNK         0.0000
   5812 H(1)       52.4402    5.2320    5.7226 H         1 UNK         0.0000
   5813 H(2)       50.5373    6.7508    6.0041 H         1 UNK         0.0000
   5814 H(3)       51.1241    8.2558    2.0261 H         1 UNK         0.0000
   5815 H(4)       53.0418    6.7236    1.7471 H         1 UNK         0.0000
   5816 H(5)       49.3447    8.8278    3.4139 H         1 UNK         0.0000
   5817 H(6)       54.2504    4.9580    2.4950 H         1 UNK         0.0000
   5818 H(7)       55.7042    2.6188    3.8623 H         1 UNK         0.0000
   5819 H(8)       56.0744    3.8565    2.7256 H         1 UNK         0.0000
   5820 H(9)       56.8032    3.8137    4.3178 H         1 UNK         0.0000
   5821 O(1)       49.1963    3.8867    5.4598 O.3       1 UNK         0.0000
   5822 O(2)       44.2224   -0.0578    4.1331 O.2       1 UNK         0.0000
   5823 N(1)       44.8735    0.4665    6.2448 N.am      1 UNK         0.0000
   5824 C(1)       45.9808    1.3064    5.9907 C.ar      1 UNK         0.0000
   5825 C(2)       46.7036    1.3083    4.7979 C.ar      1 UNK         0.0000
   5826 C(3)       47.7813    2.1750    4.6412 C.ar      1 UNK         0.0000
   5827 C(4)       48.1516    3.0372    5.6701 C.ar      1 UNK         0.0000
   5828 C(5)       47.4483    3.0135    6.8738 C.ar      1 UNK         0.0000
   5829 C(6)       46.3704    2.1535    7.0288 C.ar      1 UNK         0.0000
   5830 C(7)       44.0661   -0.1357    5.3565 C.2       1 UNK         0.0000
   5831 C(8)       42.9427   -0.9372    5.9575 C.3       1 UNK         0.0000
   5832 H(1)       46.4252    0.6455    3.9879 H         1 UNK         0.0000
   5833 H(2)       48.3281    2.1643    3.7064 H         1 UNK         0.0000
   5834 H(3)       47.7412    3.6693    7.6844 H         1 UNK         0.0000
   5835 H(4)       45.8235    2.1371    7.9634 H         1 UNK         0.0000
   5836 H(5)       49.5207    4.2413    6.2966 H         1 UNK         0.0000
   5837 H(6)       44.6150    0.3715    7.2155 H         1 UNK         0.0000
   5838 H(7)       43.1611   -1.9677    5.8482 H         1 UNK         0.0000
   5839 H(8)       42.7909   -0.7300    6.9849 H         1 UNK         0.0000
   5840 H(9)       42.0621   -0.7728    5.3927 H         1 UNK         0.0000
   5841 O(1)       56.4424    0.6998   15.9746 O.3       1 UNK         0.0000
   5842 O(2)       51.4685    4.6443   14.6478 O.2       1 UNK         0.0000
   5843 N(1)       52.1195    4.1200   16.7595 N.am      1 UNK         0.0000
   5844 C(1)       53.2268    3.2801   16.5055 C.ar      1 UNK         0.0000
   5845 C(2)       53.9497    3.2782   15.3126 C.ar      1 UNK         0.0000
   5846 C(3)       55.0273    2.4115   15.1560 C.ar      1 UNK         0.0000
   5847 C(4)       55.3976    1.5493   16.1849 C.ar      1 UNK         0.0000
   5848 C(5)       54.6943    1.5730   17.3886 C.ar      1 UNK         0.0000
   5849 C(6)       53.6165    2.4330   17.5435 C.ar      1 UNK         0.0000
   5850 C(7)       51.3122    4.7222   15.8713 C.2       1 UNK         0.0000
   5851 C(8)       50.1887    5.5237   16.4723 C.3       1 UNK         0.0000
   5852 H(1)       53.6712    3.9410   14.5027 H         1 UNK         0.0000
   5853 H(2)       55.5741    2.4222   14.2212 H         1 UNK         0.0000
   5854 H(3)       54.9873    0.9172   18.1992 H         1 UNK         0.0000
   5855 H(4)       53.0696    2.4494   18.4782 H         1 UNK         0.0000
   5856 H(5)       56.7667    0.3452   16.8114 H         1 UNK         0.0000
   5857 H(6)       51.8610    4.2150   17.7302 H         1 UNK         0.0000
   5858 H(7)       50.4072    6.5542   16.3629 H         1 UNK         0.0000
   5859 H(8)       50.0369    5.3165   17.4996 H         1 UNK         0.0000
   5860 H(9)       49.3082    5.3593   15.9074 H         1 UNK         0.0000
   5861 O(1)       57.8878   -3.8867   21.7753 O.3       1 UNK         0.0000
   5862 O(2)       62.8617    0.0578   23.1020 O.2       1 UNK         0.0000
   5863 N(1)       62.2106   -0.4665   20.9903 N.am      1 UNK         0.0000
   5864 C(1)       61.1033   -1.3064   21.2444 C.ar      1 UNK         0.0000
   5865 C(2)       60.3805   -1.3083   22.4372 C.ar      1 UNK         0.0000
   5866 C(3)       59.3028   -2.1750   22.5939 C.ar      1 UNK         0.0000
   5867 C(4)       58.9325   -3.0372   21.5650 C.ar      1 UNK         0.0000
   5868 C(5)       59.6358   -3.0135   20.3613 C.ar      1 UNK         0.0000
   5869 C(6)       60.7136   -2.1535   20.2063 C.ar      1 UNK         0.0000
   5870 C(7)       63.0180    0.1357   21.8786 C.2       1 UNK         0.0000
   5871 C(8)       64.1414    0.9372   21.2776 C.3       1 UNK         0.0000
   5872 H(1)       60.6589   -0.6455   23.2472 H         1 UNK         0.0000
   5873 H(2)       58.7560   -2.1643   23.5287 H         1 UNK         0.0000
   5874 H(3)       59.3429   -3.6693   19.5507 H         1 UNK         0.0000
   5875 H(4)       61.2606   -2.1371   19.2717 H         1 UNK         0.0000
   5876 H(5)       57.5634   -4.2413   20.9385 H         1 UNK         0.0000
   5877 H(6)       62.4691   -0.3715   20.0196 H         1 UNK         0.0000
   5878 H(7)       63.9230    1.9677   21.3869 H         1 UNK         0.0000
   5879 H(8)       64.2932    0.7300   20.2502 H         1 UNK         0.0000
   5880 H(9)       65.0219    0.7728   21.8424 H         1 UNK         0.0000
   5881 O(1)       50.6417    8.4732   11.2605 O.3       1 UNK         0.0000
   5882 O(2)       55.6156    4.5287   12.5873 O.2       1 UNK         0.0000
   5883 N(1)       54.9646    5.0530   10.4756 N.am      1 UNK         0.0000
   5884 C(1)       53.8572    5.8929   10.7296 C.ar      1 UNK         0.0000
   5885 C(2)       53.1344    5.8948   11.9225 C.ar      1 UNK         0.0000
   5886 C(3)       52.0567    6.7615   12.0791 C.ar      1 UNK         0.0000
   5887 C(4)       51.6864    7.6237   11.0502 C.ar      1 UNK         0.0000
   5888 C(5)       52.3898    7.6000    9.8465 C.ar      1 UNK         0.0000
   5889 C(6)       53.4676    6.7400    9.6916 C.ar      1 UNK         0.0000
   5890 C(7)       55.7719    4.4508   11.3638 C.2       1 UNK         0.0000
   5891 C(8)       56.8954    3.6493   10.7628 C.3       1 UNK         0.0000
   5892 H(1)       53.4129    5.2320   12.7324 H         1 UNK         0.0000
   5893 H(2)       51.5100    6.7508   13.0139 H         1 UNK         0.0000
   5894 H(3)       52.0968    8.2558    9.0359 H         1 UNK         0.0000
   5895 H(4)       54.0145    6.7236    8.7569 H         1 UNK         0.0000
   5896 H(5)       50.3174    8.8278   10.4237 H         1 UNK         0.0000
   5897 H(6)       55.2231    4.9580    9.5049 H         1 UNK         0.0000
   5898 H(7)       56.6769    2.6188   10.8722 H         1 UNK         0.0000
   5899 H(8)       57.0471    3.8565    9.7355 H         1 UNK         0.0000
   5900 H(9)       57.7759    3.8137   11.3277 H         1 UNK         0.0000
   5901 O(1)       61.7430    3.8867   12.4697 O.3       1 UNK         0.0000
   5902 O(2)       56.7691   -0.0578   11.1429 O.2       1 UNK         0.0000
   5903 N(1)       57.4202    0.4665   13.2546 N.am      1 UNK         0.0000
   5904 C(1)       58.5275    1.3064   13.0005 C.ar      1 UNK         0.0000
   5905 C(2)       59.2503    1.3083   11.8077 C.ar      1 UNK         0.0000
   5906 C(3)       60.3280    2.1750   11.6511 C.ar      1 UNK         0.0000
   5907 C(4)       60.6983    3.0372   12.6800 C.ar      1 UNK         0.0000
   5908 C(5)       59.9950    3.0135   13.8837 C.ar      1 UNK         0.0000
   5909 C(6)       58.9171    2.1535   14.0386 C.ar      1 UNK         0.0000
   5910 C(7)       56.6128   -0.1357   12.3664 C.2       1 UNK         0.0000
   5911 C(8)       55.4894   -0.9372   12.9673 C.3       1 UNK         0.0000
   5912 H(1)       58.9719    0.6455   10.9978 H         1 UNK         0.0000
   5913 H(2)       60.8748    2.1643   10.7162 H         1 UNK         0.0000
   5914 H(3)       60.2879    3.6693   14.6943 H         1 UNK         0.0000
   5915 H(4)       58.3702    2.1371   14.9733 H         1 UNK         0.0000
   5916 H(5)       62.0674    4.2413   13.3065 H         1 UNK         0.0000
   5917 H(6)       57.1617    0.3715   14.2253 H         1 UNK         0.0000
   5918 H(7)       55.7078   -1.9677   12.8580 H         1 UNK         0.0000
   5919 H(8)       55.3376   -0.7300   13.9947 H         1 UNK         0.0000
   5920 H(9)       54.6088   -0.7728   12.4025 H         1 UNK         0.0000
   5921 O(1)       57.4151    0.6998    1.7534 O.3       1 UNK         0.0000
   5922 O(2)       52.4412    4.6443    0.4267 O.2       1 UNK         0.0000
   5923 N(1)       53.0922    4.1200    2.5384 N.am      1 UNK         0.0000
   5924 C(1)       54.1995    3.2801    2.2843 C.ar      1 UNK         0.0000
   5925 C(2)       54.9224    3.2782    1.0915 C.ar      1 UNK         0.0000
   5926 C(3)       56.0000    2.4115    0.9348 C.ar      1 UNK         0.0000
   5927 C(4)       56.3703    1.5493    1.9637 C.ar      1 UNK         0.0000
   5928 C(5)       55.6670    1.5730    3.1674 C.ar      1 UNK         0.0000
   5929 C(6)       54.5892    2.4330    3.3223 C.ar      1 UNK         0.0000
   5930 C(7)       52.2849    4.7222    1.6501 C.2       1 UNK         0.0000
   5931 C(8)       51.1614    5.5237    2.2511 C.3       1 UNK         0.0000
   5932 H(1)       54.6439    3.9410    0.2815 H         1 UNK         0.0000
   5933 H(2)       56.5468    2.4222    0.0000 H         1 UNK         0.0000
   5934 H(3)       55.9599    0.9172    3.9780 H         1 UNK         0.0000
   5935 H(4)       54.0423    2.4494    4.2570 H         1 UNK         0.0000
   5936 H(5)       57.7394    0.3452    2.5902 H         1 UNK         0.0000
   5937 H(6)       52.8337    4.2150    3.5091 H         1 UNK         0.0000
   5938 H(7)       51.3799    6.5542    2.1418 H         1 UNK         0.0000
   5939 H(8)       51.0096    5.3165    3.2785 H         1 UNK         0.0000
   5940 H(9)       50.2809    5.3593    1.6863 H         1 UNK         0.0000
   5941 O(1)       44.3684   -3.8867    7.7556 O.3       1 UNK         0.0000
   5942 O(2)       49.3423    0.0578    9.0824 O.2       1 UNK         0.0000
   5943 N(1)       48.6912   -0.4665    6.9707 N.am      1 UNK         0.0000
   5944 C(1)       47.5839   -1.3064    7.2247 C.ar      1 UNK         0.0000
   5945 C(2)       46.8611   -1.3083    8.4175 C.ar      1 UNK         0.0000
   5946 C(3)       45.7834   -2.1750    8.5742 C.ar      1 UNK         0.0000
   5947 C(4)       45.4131   -3.0372    7.5453 C.ar      1 UNK         0.0000
   5948 C(5)       46.1164   -3.0135    6.3416 C.ar      1 UNK         0.0000
   5949 C(6)       47.1943   -2.1535    6.1867 C.ar      1 UNK         0.0000
   5950 C(7)       49.4986    0.1357    7.8589 C.2       1 UNK         0.0000
   5951 C(8)       50.6220    0.9372    7.2579 C.3       1 UNK         0.0000
   5952 H(1)       47.1395   -0.6455    9.2275 H         1 UNK         0.0000
   5953 H(2)       45.2366   -2.1643    9.5090 H         1 UNK         0.0000
   5954 H(3)       45.8235   -3.6693    5.5310 H         1 UNK         0.0000
   5955 H(4)       47.7412   -2.1371    5.2520 H         1 UNK         0.0000
   5956 H(5)       44.0440   -4.2413    6.9188 H         1 UNK         0.0000
   5957 H(6)       48.9497   -0.3715    5.9999 H         1 UNK         0.0000
   5958 H(7)       50.4036    1.9677    7.3672 H         1 UNK         0.0000
   5959 H(8)       50.7738    0.7300    6.2305 H         1 UNK         0.0000
   5960 H(9)       51.5026    0.7728    7.8227 H         1 UNK         0.0000
   5961 O(1)       51.6144   -0.6998   18.2703 O.3       1 UNK         0.0000
   5962 O(2)       56.5883   -4.6443   19.5971 O.2       1 UNK         0.0000
   5963 N(1)       55.9373   -4.1200   17.4854 N.am      1 UNK         0.0000
   5964 C(1)       54.8299   -3.2801   17.7395 C.ar      1 UNK         0.0000
   5965 C(2)       54.1071   -3.2782   18.9323 C.ar      1 UNK         0.0000
   5966 C(3)       53.0294   -2.4115   19.0889 C.ar      1 UNK         0.0000
   5967 C(4)       52.6591   -1.5493   18.0600 C.ar      1 UNK         0.0000
   5968 C(5)       53.3625   -1.5730   16.8563 C.ar      1 UNK         0.0000
   5969 C(6)       54.4403   -2.4330   16.7014 C.ar      1 UNK         0.0000
   5970 C(7)       56.7446   -4.7222   18.3737 C.2       1 UNK         0.0000
   5971 C(8)       57.8681   -5.5237   17.7727 C.3       1 UNK         0.0000
   5972 H(1)       54.3856   -3.9410   19.7422 H         1 UNK         0.0000
   5973 H(2)       52.4827   -2.4222   20.0238 H         1 UNK         0.0000
   5974 H(3)       53.0695   -0.9172   16.0457 H         1 UNK         0.0000
   5975 H(4)       54.9872   -2.4494   15.7668 H         1 UNK         0.0000
   5976 H(5)       51.2901   -0.3452   17.4335 H         1 UNK         0.0000
   5977 H(6)       56.1958   -4.2150   16.5147 H         1 UNK         0.0000
   5978 H(7)       57.6496   -6.5542   17.8820 H         1 UNK         0.0000
   5979 H(8)       58.0198   -5.3165   16.7453 H         1 UNK         0.0000
   5980 H(9)       58.7486   -5.3593   18.3375 H         1 UNK         0.0000
   5981 O(1)       51.1417    3.8867   19.4795 O.3       1 UNK         0.0000
   5982 O(2)       46.1678   -0.0578   18.1527 O.2       1 UNK         0.0000
   5983 N(1)       46.8189    0.4665   20.2644 N.am      1 UNK         0.0000
   5984 C(1)       47.9262    1.3064   20.0104 C.ar      1 UNK         0.0000
   5985 C(2)       48.6490    1.3083   18.8176 C.ar      1 UNK         0.0000
   5986 C(3)       49.7267    2.1750   18.6609 C.ar      1 UNK         0.0000
   5987 C(4)       50.0970    3.0372   19.6898 C.ar      1 UNK         0.0000
   5988 C(5)       49.3936    3.0135   20.8935 C.ar      1 UNK         0.0000
   5989 C(6)       48.3158    2.1535   21.0484 C.ar      1 UNK         0.0000
   5990 C(7)       46.0115   -0.1357   19.3762 C.2       1 UNK         0.0000
   5991 C(8)       44.8881   -0.9372   19.9772 C.3       1 UNK         0.0000
   5992 H(1)       48.3706    0.6455   18.0076 H         1 UNK         0.0000
   5993 H(2)       50.2734    2.1643   17.7261 H         1 UNK         0.0000
   5994 H(3)       49.6866    3.6693   21.7041 H         1 UNK         0.0000
   5995 H(4)       47.7689    2.1371   21.9831 H         1 UNK         0.0000
   5996 H(5)       51.4661    4.2413   20.3163 H         1 UNK         0.0000
   5997 H(6)       46.5604    0.3715   21.2352 H         1 UNK         0.0000
   5998 H(7)       45.1065   -1.9677   19.8678 H         1 UNK         0.0000
   5999 H(8)       44.7363   -0.7300   21.0046 H         1 UNK         0.0000
   6000 H(9)       44.0075   -0.7728   19.4124 H         1 UNK         0.0000
   6001 O(1)       55.4697    9.8728    8.9648 O.3       1 UNK         0.0000
   6002 O(2)       50.4958   13.8173    7.6380 O.2       1 UNK         0.0000
   6003 N(1)       51.1468   13.2930    9.7497 N.am      1 UNK         0.0000
   6004 C(1)       52.2541   12.4531    9.4956 C.ar      1 UNK         0.0000
   6005 C(2)       52.9770   12.4512    8.3028 C.ar      1 UNK         0.0000
   6006 C(3)       54.0546   11.5845    8.1462 C.ar      1 UNK         0.0000
   6007 C(4)       54.4250   10.7223    9.1751 C.ar      1 UNK         0.0000
   6008 C(5)       53.7216   10.7460   10.3788 C.ar      1 UNK         0.0000
   6009 C(6)       52.6438   11.6060   10.5337 C.ar      1 UNK         0.0000
   6010 C(7)       50.3395   13.8952    8.8614 C.2       1 UNK         0.0000
   6011 C(8)       49.2160   14.6967    9.4624 C.3       1 UNK         0.0000
   6012 H(1)       52.6985   13.1140    7.4929 H         1 UNK         0.0000
   6013 H(2)       54.6014   11.5952    7.2113 H         1 UNK         0.0000
   6014 H(3)       54.0146   10.0902   11.1894 H         1 UNK         0.0000
   6015 H(4)       52.0969   11.6224   11.4683 H         1 UNK         0.0000
   6016 H(5)       55.7940    9.5182    9.8016 H         1 UNK         0.0000
   6017 H(6)       50.8883   13.3880   10.7204 H         1 UNK         0.0000
   6018 H(7)       49.4345   15.7272    9.3531 H         1 UNK         0.0000
   6019 H(8)       49.0643   14.4895   10.4898 H         1 UNK         0.0000
   6020 H(9)       48.3355   14.5323    8.8976 H         1 UNK         0.0000
   6021 O(1)       45.3411    5.2863   14.7654 O.3       1 UNK         0.0000
   6022 O(2)       50.3150    9.2308   16.0922 O.2       1 UNK         0.0000
   6023 N(1)       49.6639    8.7065   13.9805 N.am      1 UNK         0.0000
   6024 C(1)       48.5566    7.8666   14.2346 C.ar      1 UNK         0.0000
   6025 C(2)       47.8338    7.8647   15.4274 C.ar      1 UNK         0.0000
   6026 C(3)       46.7561    6.9980   15.5840 C.ar      1 UNK         0.0000
   6027 C(4)       46.3858    6.1358   14.5551 C.ar      1 UNK         0.0000
   6028 C(5)       47.0891    6.1595   13.3514 C.ar      1 UNK         0.0000
   6029 C(6)       48.1670    7.0195   13.1965 C.ar      1 UNK         0.0000
   6030 C(7)       50.4713    9.3087   14.8687 C.2       1 UNK         0.0000
   6031 C(8)       51.5947   10.1102   14.2678 C.3       1 UNK         0.0000
   6032 H(1)       48.1122    8.5275   16.2373 H         1 UNK         0.0000
   6033 H(2)       46.2093    7.0087   16.5188 H         1 UNK         0.0000
   6034 H(3)       46.7962    5.5037   12.5408 H         1 UNK         0.0000
   6035 H(4)       48.7139    7.0359   12.2618 H         1 UNK         0.0000
   6036 H(5)       45.0167    4.9317   13.9286 H         1 UNK         0.0000
   6037 H(6)       49.9224    8.8015   13.0098 H         1 UNK         0.0000
   6038 H(7)       51.3763   11.1407   14.3771 H         1 UNK         0.0000
   6039 H(8)       51.7465    9.9030   13.2404 H         1 UNK         0.0000
   6040 H(9)       52.4752    9.9458   14.8326 H         1 UNK         0.0000
   6041 O(1)       49.6690   17.6462    4.2507 O.3       1 UNK         0.0000
   6042 O(2)       54.6429   13.7017    5.5774 O.2       1 UNK         0.0000
   6043 N(1)       53.9919   14.2260    3.4657 N.am      1 UNK         0.0000
   6044 C(1)       52.8846   15.0659    3.7198 C.ar      1 UNK         0.0000
   6045 C(2)       52.1617   15.0678    4.9126 C.ar      1 UNK         0.0000
   6046 C(3)       51.0841   15.9345    5.0693 C.ar      1 UNK         0.0000
   6047 C(4)       50.7137   16.7967    4.0404 C.ar      1 UNK         0.0000
   6048 C(5)       51.4171   16.7730    2.8367 C.ar      1 UNK         0.0000
   6049 C(6)       52.4949   15.9130    2.6817 C.ar      1 UNK         0.0000
   6050 C(7)       54.7992   13.6238    4.3540 C.2       1 UNK         0.0000
   6051 C(8)       55.9227   12.8223    3.7530 C.3       1 UNK         0.0000
   6052 H(1)       52.4402   14.4050    5.7226 H         1 UNK         0.0000
   6053 H(2)       50.5373   15.9238    6.0041 H         1 UNK         0.0000
   6054 H(3)       51.1241   17.4288    2.0261 H         1 UNK         0.0000
   6055 H(4)       53.0418   15.8966    1.7471 H         1 UNK         0.0000
   6056 H(5)       49.3447   18.0008    3.4139 H         1 UNK         0.0000
   6057 H(6)       54.2504   14.1310    2.4950 H         1 UNK         0.0000
   6058 H(7)       55.7042   11.7918    3.8623 H         1 UNK         0.0000
   6059 H(8)       56.0744   13.0295    2.7256 H         1 UNK         0.0000
   6060 H(9)       56.8032   12.9867    4.3178 H         1 UNK         0.0000
   6061 O(1)       49.1963   13.0597    5.4598 O.3       1 UNK         0.0000
   6062 O(2)       44.2224    9.1152    4.1331 O.2       1 UNK         0.0000
   6063 N(1)       44.8735    9.6395    6.2448 N.am      1 UNK         0.0000
   6064 C(1)       45.9808   10.4794    5.9907 C.ar      1 UNK         0.0000
   6065 C(2)       46.7036   10.4813    4.7979 C.ar      1 UNK         0.0000
   6066 C(3)       47.7813   11.3480    4.6412 C.ar      1 UNK         0.0000
   6067 C(4)       48.1516   12.2102    5.6701 C.ar      1 UNK         0.0000
   6068 C(5)       47.4483   12.1865    6.8738 C.ar      1 UNK         0.0000
   6069 C(6)       46.3704   11.3265    7.0288 C.ar      1 UNK         0.0000
   6070 C(7)       44.0661    9.0373    5.3565 C.2       1 UNK         0.0000
   6071 C(8)       42.9427    8.2358    5.9575 C.3       1 UNK         0.0000
   6072 H(1)       46.4252    9.8185    3.9879 H         1 UNK         0.0000
   6073 H(2)       48.3281   11.3373    3.7064 H         1 UNK         0.0000
   6074 H(3)       47.7412   12.8423    7.6844 H         1 UNK         0.0000
   6075 H(4)       45.8235   11.3101    7.9634 H         1 UNK         0.0000
   6076 H(5)       49.5207   13.4143    6.2966 H         1 UNK         0.0000
   6077 H(6)       44.6150    9.5445    7.2155 H         1 UNK         0.0000
   6078 H(7)       43.1611    7.2053    5.8482 H         1 UNK         0.0000
   6079 H(8)       42.7909    8.4430    6.9849 H         1 UNK         0.0000
   6080 H(9)       42.0621    8.4002    5.3927 H         1 UNK         0.0000
   6081 O(1)       56.4424    9.8728   15.9746 O.3       1 UNK         0.0000
   6082 O(2)       51.4685   13.8173   14.6478 O.2       1 UNK         0.0000
   6083 N(1)       52.1195   13.2930   16.7595 N.am      1 UNK         0.0000
   6084 C(1)       53.2268   12.4531   16.5055 C.ar      1 UNK         0.0000
   6085 C(2)       53.9497   12.4512   15.3126 C.ar      1 UNK         0.0000
   6086 C(3)       55.0273   11.5845   15.1560 C.ar      1 UNK         0.0000
   6087 C(4)       55.3976   10.7223   16.1849 C.ar      1 UNK         0.0000
   6088 C(5)       54.6943   10.7460   17.3886 C.ar      1 UNK         0.0000
   6089 C(6)       53.6165   11.6060   17.5435 C.ar      1 UNK         0.0000
   6090 C(7)       51.3122   13.8952   15.8713 C.2       1 UNK         0.0000
   6091 C(8)       50.1887   14.6967   16.4723 C.3       1 UNK         0.0000
   6092 H(1)       53.6712   13.1140   14.5027 H         1 UNK         0.0000
   6093 H(2)       55.5741   11.5952   14.2212 H         1 UNK         0.0000
   6094 H(3)       54.9873   10.0902   18.1992 H         1 UNK         0.0000
   6095 H(4)       53.0696   11.6224   18.4782 H         1 UNK         0.0000
   6096 H(5)       56.7667    9.5182   16.8114 H         1 UNK         0.0000
   6097 H(6)       51.8610   13.3880   17.7302 H         1 UNK         0.0000
   6098 H(7)       50.4072   15.7272   16.3629 H         1 UNK         0.0000
   6099 H(8)       50.0369   14.4895   17.4996 H         1 UNK         0.0000
   6100 H(9)       49.3082   14.5323   15.9074 H         1 UNK         0.0000
   6101 O(1)       57.8878    5.2863   21.7753 O.3       1 UNK         0.0000
   6102 O(2)       62.8617    9.2308   23.1020 O.2       1 UNK         0.0000
   6103 N(1)       62.2106    8.7065   20.9903 N.am      1 UNK         0.0000
   6104 C(1)       61.1033    7.8666   21.2444 C.ar      1 UNK         0.0000
   6105 C(2)       60.3805    7.8647   22.4372 C.ar      1 UNK         0.0000
   6106 C(3)       59.3028    6.9980   22.5939 C.ar      1 UNK         0.0000
   6107 C(4)       58.9325    6.1358   21.5650 C.ar      1 UNK         0.0000
   6108 C(5)       59.6358    6.1595   20.3613 C.ar      1 UNK         0.0000
   6109 C(6)       60.7136    7.0195   20.2063 C.ar      1 UNK         0.0000
   6110 C(7)       63.0180    9.3087   21.8786 C.2       1 UNK         0.0000
   6111 C(8)       64.1414   10.1102   21.2776 C.3       1 UNK         0.0000
   6112 H(1)       60.6589    8.5275   23.2472 H         1 UNK         0.0000
   6113 H(2)       58.7560    7.0087   23.5287 H         1 UNK         0.0000
   6114 H(3)       59.3429    5.5037   19.5507 H         1 UNK         0.0000
   6115 H(4)       61.2606    7.0359   19.2717 H         1 UNK         0.0000
   6116 H(5)       57.5634    4.9317   20.9385 H         1 UNK         0.0000
   6117 H(6)       62.4691    8.8015   20.0196 H         1 UNK         0.0000
   6118 H(7)       63.9230   11.1407   21.3869 H         1 UNK         0.0000
   6119 H(8)       64.2932    9.9030   20.2502 H         1 UNK         0.0000
   6120 H(9)       65.0219    9.9458   21.8424 H         1 UNK         0.0000
   6121 O(1)       50.6417   17.6462   11.2605 O.3       1 UNK         0.0000
   6122 O(2)       55.6156   13.7017   12.5873 O.2       1 UNK         0.0000
   6123 N(1)       54.9646   14.2260   10.4756 N.am      1 UNK         0.0000
   6124 C(1)       53.8572   15.0659   10.7296 C.ar      1 UNK         0.0000
   6125 C(2)       53.1344   15.0678   11.9225 C.ar      1 UNK         0.0000
   6126 C(3)       52.0567   15.9345   12.0791 C.ar      1 UNK         0.0000
   6127 C(4)       51.6864   16.7967   11.0502 C.ar      1 UNK         0.0000
   6128 C(5)       52.3898   16.7730    9.8465 C.ar      1 UNK         0.0000
   6129 C(6)       53.4676   15.9130    9.6916 C.ar      1 UNK         0.0000
   6130 C(7)       55.7719   13.6238   11.3638 C.2       1 UNK         0.0000
   6131 C(8)       56.8954   12.8223   10.7628 C.3       1 UNK         0.0000
   6132 H(1)       53.4129   14.4050   12.7324 H         1 UNK         0.0000
   6133 H(2)       51.5100   15.9238   13.0139 H         1 UNK         0.0000
   6134 H(3)       52.0968   17.4288    9.0359 H         1 UNK         0.0000
   6135 H(4)       54.0145   15.8966    8.7569 H         1 UNK         0.0000
   6136 H(5)       50.3174   18.0008   10.4237 H         1 UNK         0.0000
   6137 H(6)       55.2231   14.1310    9.5049 H         1 UNK         0.0000
   6138 H(7)       56.6769   11.7918   10.8722 H         1 UNK         0.0000
   6139 H(8)       57.0471   13.0295    9.7355 H         1 UNK         0.0000
   6140 H(9)       57.7759   12.9867   11.3277 H         1 UNK         0.0000
   6141 O(1)       61.7430   13.0597   12.4697 O.3       1 UNK         0.0000
   6142 O(2)       56.7691    9.1152   11.1429 O.2       1 UNK         0.0000
   6143 N(1)       57.4202    9.6395   13.2546 N.am      1 UNK         0.0000
   6144 C(1)       58.5275   10.4794   13.0005 C.ar      1 UNK         0.0000
   6145 C(2)       59.2503   10.4813   11.8077 C.ar      1 UNK         0.0000
   6146 C(3)       60.3280   11.3480   11.6511 C.ar      1 UNK         0.0000
   6147 C(4)       60.6983   12.2102   12.6800 C.ar      1 UNK         0.0000
   6148 C(5)       59.9950   12.1865   13.8837 C.ar      1 UNK         0.0000
   6149 C(6)       58.9171   11.3265   14.0386 C.ar      1 UNK         0.0000
   6150 C(7)       56.6128    9.0373   12.3664 C.2       1 UNK         0.0000
   6151 C(8)       55.4894    8.2358   12.9673 C.3       1 UNK         0.0000
   6152 H(1)       58.9719    9.8185   10.9978 H         1 UNK         0.0000
   6153 H(2)       60.8748   11.3373   10.7162 H         1 UNK         0.0000
   6154 H(3)       60.2879   12.8423   14.6943 H         1 UNK         0.0000
   6155 H(4)       58.3702   11.3101   14.9733 H         1 UNK         0.0000
   6156 H(5)       62.0674   13.4143   13.3065 H         1 UNK         0.0000
   6157 H(6)       57.1617    9.5445   14.2253 H         1 UNK         0.0000
   6158 H(7)       55.7078    7.2053   12.8580 H         1 UNK         0.0000
   6159 H(8)       55.3376    8.4430   13.9947 H         1 UNK         0.0000
   6160 H(9)       54.6088    8.4002   12.4025 H         1 UNK         0.0000
   6161 O(1)       57.4151    9.8728    1.7534 O.3       1 UNK         0.0000
   6162 O(2)       52.4412   13.8173    0.4267 O.2       1 UNK         0.0000
   6163 N(1)       53.0922   13.2930    2.5384 N.am      1 UNK         0.0000
   6164 C(1)       54.1995   12.4531    2.2843 C.ar      1 UNK         0.0000
   6165 C(2)       54.9224   12.4512    1.0915 C.ar      1 UNK         0.0000
   6166 C(3)       56.0000   11.5845    0.9348 C.ar      1 UNK         0.0000
   6167 C(4)       56.3703   10.7223    1.9637 C.ar      1 UNK         0.0000
   6168 C(5)       55.6670   10.7460    3.1674 C.ar      1 UNK         0.0000
   6169 C(6)       54.5892   11.6060    3.3223 C.ar      1 UNK         0.0000
   6170 C(7)       52.2849   13.8952    1.6501 C.2       1 UNK         0.0000
   6171 C(8)       51.1614   14.6967    2.2511 C.3       1 UNK         0.0000
   6172 H(1)       54.6439   13.1140    0.2815 H         1 UNK         0.0000
   6173 H(2)       56.5468   11.5952    0.0000 H         1 UNK         0.0000
   6174 H(3)       55.9599   10.0902    3.9780 H         1 UNK         0.0000
   6175 H(4)       54.0423   11.6224    4.2570 H         1 UNK         0.0000
   6176 H(5)       57.7394    9.5182    2.5902 H         1 UNK         0.0000
   6177 H(6)       52.8337   13.3880    3.5091 H         1 UNK         0.0000
   6178 H(7)       51.3799   15.7272    2.1418 H         1 UNK         0.0000
   6179 H(8)       51.0096   14.4895    3.2785 H         1 UNK         0.0000
   6180 H(9)       50.2809   14.5323    1.6863 H         1 UNK         0.0000
   6181 O(1)       44.3684    5.2863    7.7556 O.3       1 UNK         0.0000
   6182 O(2)       49.3423    9.2308    9.0824 O.2       1 UNK         0.0000
   6183 N(1)       48.6912    8.7065    6.9707 N.am      1 UNK         0.0000
   6184 C(1)       47.5839    7.8666    7.2247 C.ar      1 UNK         0.0000
   6185 C(2)       46.8611    7.8647    8.4175 C.ar      1 UNK         0.0000
   6186 C(3)       45.7834    6.9980    8.5742 C.ar      1 UNK         0.0000
   6187 C(4)       45.4131    6.1358    7.5453 C.ar      1 UNK         0.0000
   6188 C(5)       46.1164    6.1595    6.3416 C.ar      1 UNK         0.0000
   6189 C(6)       47.1943    7.0195    6.1867 C.ar      1 UNK         0.0000
   6190 C(7)       49.4986    9.3087    7.8589 C.2       1 UNK         0.0000
   6191 C(8)       50.6220   10.1102    7.2579 C.3       1 UNK         0.0000
   6192 H(1)       47.1395    8.5275    9.2275 H         1 UNK         0.0000
   6193 H(2)       45.2366    7.0087    9.5090 H         1 UNK         0.0000
   6194 H(3)       45.8235    5.5037    5.5310 H         1 UNK         0.0000
   6195 H(4)       47.7412    7.0359    5.2520 H         1 UNK         0.0000
   6196 H(5)       44.0440    4.9317    6.9188 H         1 UNK         0.0000
   6197 H(6)       48.9497    8.8015    5.9999 H         1 UNK         0.0000
   6198 H(7)       50.4036   11.1407    7.3672 H         1 UNK         0.0000
   6199 H(8)       50.7738    9.9030    6.2305 H         1 UNK         0.0000
   6200 H(9)       51.5026    9.9458    7.8227 H         1 UNK         0.0000
   6201 O(1)       51.6144    8.4732   18.2703 O.3       1 UNK         0.0000
   6202 O(2)       56.5883    4.5287   19.5971 O.2       1 UNK         0.0000
   6203 N(1)       55.9373    5.0530   17.4854 N.am      1 UNK         0.0000
   6204 C(1)       54.8299    5.8929   17.7395 C.ar      1 UNK         0.0000
   6205 C(2)       54.1071    5.8948   18.9323 C.ar      1 UNK         0.0000
   6206 C(3)       53.0294    6.7615   19.0889 C.ar      1 UNK         0.0000
   6207 C(4)       52.6591    7.6237   18.0600 C.ar      1 UNK         0.0000
   6208 C(5)       53.3625    7.6000   16.8563 C.ar      1 UNK         0.0000
   6209 C(6)       54.4403    6.7400   16.7014 C.ar      1 UNK         0.0000
   6210 C(7)       56.7446    4.4508   18.3737 C.2       1 UNK         0.0000
   6211 C(8)       57.8681    3.6493   17.7727 C.3       1 UNK         0.0000
   6212 H(1)       54.3856    5.2320   19.7422 H         1 UNK         0.0000
   6213 H(2)       52.4827    6.7508   20.0238 H         1 UNK         0.0000
   6214 H(3)       53.0695    8.2558   16.0457 H         1 UNK         0.0000
   6215 H(4)       54.9872    6.7236   15.7668 H         1 UNK         0.0000
   6216 H(5)       51.2901    8.8278   17.4335 H         1 UNK         0.0000
   6217 H(6)       56.1958    4.9580   16.5147 H         1 UNK         0.0000
   6218 H(7)       57.6496    2.6188   17.8820 H         1 UNK         0.0000
   6219 H(8)       58.0198    3.8565   16.7453 H         1 UNK         0.0000
   6220 H(9)       58.7486    3.8137   18.3375 H         1 UNK         0.0000
   6221 O(1)       51.1417   13.0597   19.4795 O.3       1 UNK         0.0000
   6222 O(2)       46.1678    9.1152   18.1527 O.2       1 UNK         0.0000
   6223 N(1)       46.8189    9.6395   20.2644 N.am      1 UNK         0.0000
   6224 C(1)       47.9262   10.4794   20.0104 C.ar      1 UNK         0.0000
   6225 C(2)       48.6490   10.4813   18.8176 C.ar      1 UNK         0.0000
   6226 C(3)       49.7267   11.3480   18.6609 C.ar      1 UNK         0.0000
   6227 C(4)       50.0970   12.2102   19.6898 C.ar      1 UNK         0.0000
   6228 C(5)       49.3936   12.1865   20.8935 C.ar      1 UNK         0.0000
   6229 C(6)       48.3158   11.3265   21.0484 C.ar      1 UNK         0.0000
   6230 C(7)       46.0115    9.0373   19.3762 C.2       1 UNK         0.0000
   6231 C(8)       44.8881    8.2358   19.9772 C.3       1 UNK         0.0000
   6232 H(1)       48.3706    9.8185   18.0076 H         1 UNK         0.0000
   6233 H(2)       50.2734   11.3373   17.7261 H         1 UNK         0.0000
   6234 H(3)       49.6866   12.8423   21.7041 H         1 UNK         0.0000
   6235 H(4)       47.7689   11.3101   21.9831 H         1 UNK         0.0000
   6236 H(5)       51.4661   13.4143   20.3163 H         1 UNK         0.0000
   6237 H(6)       46.5604    9.5445   21.2352 H         1 UNK         0.0000
   6238 H(7)       45.1065    7.2053   19.8678 H         1 UNK         0.0000
   6239 H(8)       44.7363    8.4430   21.0046 H         1 UNK         0.0000
   6240 H(9)       44.0075    8.4002   19.4124 H         1 UNK         0.0000
   6241 O(1)       55.4697   19.0458    8.9648 O.3       1 UNK         0.0000
   6242 O(2)       50.4958   22.9903    7.6380 O.2       1 UNK         0.0000
   6243 N(1)       51.1468   22.4660    9.7497 N.am      1 UNK         0.0000
   6244 C(1)       52.2541   21.6261    9.4956 C.ar      1 UNK         0.0000
   6245 C(2)       52.9770   21.6242    8.3028 C.ar      1 UNK         0.0000
   6246 C(3)       54.0546   20.7575    8.1462 C.ar      1 UNK         0.0000
   6247 C(4)       54.4250   19.8953    9.1751 C.ar      1 UNK         0.0000
   6248 C(5)       53.7216   19.9190   10.3788 C.ar      1 UNK         0.0000
   6249 C(6)       52.6438   20.7790   10.5337 C.ar      1 UNK         0.0000
   6250 C(7)       50.3395   23.0682    8.8614 C.2       1 UNK         0.0000
   6251 C(8)       49.2160   23.8697    9.4624 C.3       1 UNK         0.0000
   6252 H(1)       52.6985   22.2870    7.4929 H         1 UNK         0.0000
   6253 H(2)       54.6014   20.7682    7.2113 H         1 UNK         0.0000
   6254 H(3)       54.0146   19.2632   11.1894 H         1 UNK         0.0000
   6255 H(4)       52.0969   20.7954   11.4683 H         1 UNK         0.0000
   6256 H(5)       55.7940   18.6912    9.8016 H         1 UNK         0.0000
   6257 H(6)       50.8883   22.5611   10.7204 H         1 UNK         0.0000
   6258 H(7)       49.4345   24.9002    9.3531 H         1 UNK         0.0000
   6259 H(8)       49.0643   23.6625   10.4898 H         1 UNK         0.0000
   6260 H(9)       48.3355   23.7053    8.8976 H         1 UNK         0.0000
   6261 O(1)       45.3411   14.4593   14.7654 O.3       1 UNK         0.0000
   6262 O(2)       50.3150   18.4038   16.0922 O.2       1 UNK         0.0000
   6263 N(1)       49.6639   17.8795   13.9805 N.am      1 UNK         0.0000
   6264 C(1)       48.5566   17.0396   14.2346 C.ar      1 UNK         0.0000
   6265 C(2)       47.8338   17.0377   15.4274 C.ar      1 UNK         0.0000
   6266 C(3)       46.7561   16.1710   15.5840 C.ar      1 UNK         0.0000
   6267 C(4)       46.3858   15.3088   14.5551 C.ar      1 UNK         0.0000
   6268 C(5)       47.0891   15.3325   13.3514 C.ar      1 UNK         0.0000
   6269 C(6)       48.1670   16.1925   13.1965 C.ar      1 UNK         0.0000
   6270 C(7)       50.4713   18.4817   14.8687 C.2       1 UNK         0.0000
   6271 C(8)       51.5947   19.2832   14.2678 C.3       1 UNK         0.0000
   6272 H(1)       48.1122   17.7005   16.2373 H         1 UNK         0.0000
   6273 H(2)       46.2093   16.1817   16.5188 H         1 UNK         0.0000
   6274 H(3)       46.7962   14.6767   12.5408 H         1 UNK         0.0000
   6275 H(4)       48.7139   16.2089   12.2618 H         1 UNK         0.0000
   6276 H(5)       45.0167   14.1047   13.9286 H         1 UNK         0.0000
   6277 H(6)       49.9224   17.9746   13.0098 H         1 UNK         0.0000
   6278 H(7)       51.3763   20.3137   14.3771 H         1 UNK         0.0000
   6279 H(8)       51.7465   19.0760   13.2404 H         1 UNK         0.0000
   6280 H(9)       52.4752   19.1188   14.8326 H         1 UNK         0.0000
   6281 O(1)       49.6690   26.8192    4.2507 O.3       1 UNK         0.0000
   6282 O(2)       54.6429   22.8747    5.5774 O.2       1 UNK         0.0000
   6283 N(1)       53.9919   23.3990    3.4657 N.am      1 UNK         0.0000
   6284 C(1)       52.8846   24.2389    3.7198 C.ar      1 UNK         0.0000
   6285 C(2)       52.1617   24.2408    4.9126 C.ar      1 UNK         0.0000
   6286 C(3)       51.0841   25.1075    5.0693 C.ar      1 UNK         0.0000
   6287 C(4)       50.7137   25.9697    4.0404 C.ar      1 UNK         0.0000
   6288 C(5)       51.4171   25.9460    2.8367 C.ar      1 UNK         0.0000
   6289 C(6)       52.4949   25.0860    2.6817 C.ar      1 UNK         0.0000
   6290 C(7)       54.7992   22.7968    4.3540 C.2       1 UNK         0.0000
   6291 C(8)       55.9227   21.9953    3.7530 C.3       1 UNK         0.0000
   6292 H(1)       52.4402   23.5780    5.7226 H         1 UNK         0.0000
   6293 H(2)       50.5373   25.0968    6.0041 H         1 UNK         0.0000
   6294 H(3)       51.1241   26.6018    2.0261 H         1 UNK         0.0000
   6295 H(4)       53.0418   25.0696    1.7471 H         1 UNK         0.0000
   6296 H(5)       49.3447   27.1738    3.4139 H         1 UNK         0.0000
   6297 H(6)       54.2504   23.3040    2.4950 H         1 UNK         0.0000
   6298 H(7)       55.7042   20.9648    3.8623 H         1 UNK         0.0000
   6299 H(8)       56.0744   22.2025    2.7256 H         1 UNK         0.0000
   6300 H(9)       56.8032   22.1597    4.3178 H         1 UNK         0.0000
   6301 O(1)       49.1963   22.2327    5.4598 O.3       1 UNK         0.0000
   6302 O(2)       44.2224   18.2882    4.1331 O.2       1 UNK         0.0000
   6303 N(1)       44.8735   18.8125    6.2448 N.am      1 UNK         0.0000
   6304 C(1)       45.9808   19.6524    5.9907 C.ar      1 UNK         0.0000
   6305 C(2)       46.7036   19.6543    4.7979 C.ar      1 UNK         0.0000
   6306 C(3)       47.7813   20.5210    4.6412 C.ar      1 UNK         0.0000
   6307 C(4)       48.1516   21.3832    5.6701 C.ar      1 UNK         0.0000
   6308 C(5)       47.4483   21.3595    6.8738 C.ar      1 UNK         0.0000
   6309 C(6)       46.3704   20.4995    7.0288 C.ar      1 UNK         0.0000
   6310 C(7)       44.0661   18.2103    5.3565 C.2       1 UNK         0.0000
   6311 C(8)       42.9427   17.4088    5.9575 C.3       1 UNK         0.0000
   6312 H(1)       46.4252   18.9915    3.9879 H         1 UNK         0.0000
   6313 H(2)       48.3281   20.5103    3.7064 H         1 UNK         0.0000
   6314 H(3)       47.7412   22.0153    7.6844 H         1 UNK         0.0000
   6315 H(4)       45.8235   20.4831    7.9634 H         1 UNK         0.0000
   6316 H(5)       49.5207   22.5873    6.2966 H         1 UNK         0.0000
   6317 H(6)       44.6150   18.7175    7.2155 H         1 UNK         0.0000
   6318 H(7)       43.1611   16.3783    5.8482 H         1 UNK         0.0000
   6319 H(8)       42.7909   17.6160    6.9849 H         1 UNK         0.0000
   6320 H(9)       42.0621   17.5732    5.3927 H         1 UNK         0.0000
   6321 O(1)       56.4424   19.0458   15.9746 O.3       1 UNK         0.0000
   6322 O(2)       51.4685   22.9903   14.6478 O.2       1 UNK         0.0000
   6323 N(1)       52.1195   22.4660   16.7595 N.am      1 UNK         0.0000
   6324 C(1)       53.2268   21.6261   16.5055 C.ar      1 UNK         0.0000
   6325 C(2)       53.9497   21.6242   15.3126 C.ar      1 UNK         0.0000
   6326 C(3)       55.0273   20.7575   15.1560 C.ar      1 UNK         0.0000
   6327 C(4)       55.3976   19.8953   16.1849 C.ar      1 UNK         0.0000
   6328 C(5)       54.6943   19.9190   17.3886 C.ar      1 UNK         0.0000
   6329 C(6)       53.6165   20.7790   17.5435 C.ar      1 UNK         0.0000
   6330 C(7)       51.3122   23.0682   15.8713 C.2       1 UNK         0.0000
   6331 C(8)       50.1887   23.8697   16.4723 C.3       1 UNK         0.0000
   6332 H(1)       53.6712   22.2870   14.5027 H         1 UNK         0.0000
   6333 H(2)       55.5741   20.7682   14.2212 H         1 UNK         0.0000
   6334 H(3)       54.9873   19.2632   18.1992 H         1 UNK         0.0000
   6335 H(4)       53.0696   20.7954   18.4782 H         1 UNK         0.0000
   6336 H(5)       56.7667   18.6912   16.8114 H         1 UNK         0.0000
   6337 H(6)       51.8610   22.5611   17.7302 H         1 UNK         0.0000
   6338 H(7)       50.4072   24.9002   16.3629 H         1 UNK         0.0000
   6339 H(8)       50.0369   23.6625   17.4996 H         1 UNK         0.0000
   6340 H(9)       49.3082   23.7053   15.9074 H         1 UNK         0.0000
   6341 O(1)       57.8878   14.4593   21.7753 O.3       1 UNK         0.0000
   6342 O(2)       62.8617   18.4038   23.1020 O.2       1 UNK         0.0000
   6343 N(1)       62.2106   17.8795   20.9903 N.am      1 UNK         0.0000
   6344 C(1)       61.1033   17.0396   21.2444 C.ar      1 UNK         0.0000
   6345 C(2)       60.3805   17.0377   22.4372 C.ar      1 UNK         0.0000
   6346 C(3)       59.3028   16.1710   22.5939 C.ar      1 UNK         0.0000
   6347 C(4)       58.9325   15.3088   21.5650 C.ar      1 UNK         0.0000
   6348 C(5)       59.6358   15.3325   20.3613 C.ar      1 UNK         0.0000
   6349 C(6)       60.7136   16.1925   20.2063 C.ar      1 UNK         0.0000
   6350 C(7)       63.0180   18.4817   21.8786 C.2       1 UNK         0.0000
   6351 C(8)       64.1414   19.2832   21.2776 C.3       1 UNK         0.0000
   6352 H(1)       60.6589   17.7005   23.2472 H         1 UNK         0.0000
   6353 H(2)       58.7560   16.1817   23.5287 H         1 UNK         0.0000
   6354 H(3)       59.3429   14.6767   19.5507 H         1 UNK         0.0000
   6355 H(4)       61.2606   16.2089   19.2717 H         1 UNK         0.0000
   6356 H(5)       57.5634   14.1047   20.9385 H         1 UNK         0.0000
   6357 H(6)       62.4691   17.9746   20.0196 H         1 UNK         0.0000
   6358 H(7)       63.9230   20.3137   21.3869 H         1 UNK         0.0000
   6359 H(8)       64.2932   19.0760   20.2502 H         1 UNK         0.0000
   6360 H(9)       65.0219   19.1188   21.8424 H         1 UNK         0.0000
   6361 O(1)       50.6417   26.8192   11.2605 O.3       1 UNK         0.0000
   6362 O(2)       55.6156   22.8747   12.5873 O.2       1 UNK         0.0000
   6363 N(1)       54.9646   23.3990   10.4756 N.am      1 UNK         0.0000
   6364 C(1)       53.8572   24.2389   10.7296 C.ar      1 UNK         0.0000
   6365 C(2)       53.1344   24.2408   11.9225 C.ar      1 UNK         0.0000
   6366 C(3)       52.0567   25.1075   12.0791 C.ar      1 UNK         0.0000
   6367 C(4)       51.6864   25.9697   11.0502 C.ar      1 UNK         0.0000
   6368 C(5)       52.3898   25.9460    9.8465 C.ar      1 UNK         0.0000
   6369 C(6)       53.4676   25.0860    9.6916 C.ar      1 UNK         0.0000
   6370 C(7)       55.7719   22.7968   11.3638 C.2       1 UNK         0.0000
   6371 C(8)       56.8954   21.9953   10.7628 C.3       1 UNK         0.0000
   6372 H(1)       53.4129   23.5780   12.7324 H         1 UNK         0.0000
   6373 H(2)       51.5100   25.0968   13.0139 H         1 UNK         0.0000
   6374 H(3)       52.0968   26.6018    9.0359 H         1 UNK         0.0000
   6375 H(4)       54.0145   25.0696    8.7569 H         1 UNK         0.0000
   6376 H(5)       50.3174   27.1738   10.4237 H         1 UNK         0.0000
   6377 H(6)       55.2231   23.3040    9.5049 H         1 UNK         0.0000
   6378 H(7)       56.6769   20.9648   10.8722 H         1 UNK         0.0000
   6379 H(8)       57.0471   22.2025    9.7355 H         1 UNK         0.0000
   6380 H(9)       57.7759   22.1597   11.3277 H         1 UNK         0.0000
   6381 O(1)       61.7430   22.2327   12.4697 O.3       1 UNK         0.0000
   6382 O(2)       56.7691   18.2882   11.1429 O.2       1 UNK         0.0000
   6383 N(1)       57.4202   18.8125   13.2546 N.am      1 UNK         0.0000
   6384 C(1)       58.5275   19.6524   13.0005 C.ar      1 UNK         0.0000
   6385 C(2)       59.2503   19.6543   11.8077 C.ar      1 UNK         0.0000
   6386 C(3)       60.3280   20.5210   11.6511 C.ar      1 UNK         0.0000
   6387 C(4)       60.6983   21.3832   12.6800 C.ar      1 UNK         0.0000
   6388 C(5)       59.9950   21.3595   13.8837 C.ar      1 UNK         0.0000
   6389 C(6)       58.9171   20.4995   14.0386 C.ar      1 UNK         0.0000
   6390 C(7)       56.6128   18.2103   12.3664 C.2       1 UNK         0.0000
   6391 C(8)       55.4894   17.4088   12.9673 C.3       1 UNK         0.0000
   6392 H(1)       58.9719   18.9915   10.9978 H         1 UNK         0.0000
   6393 H(2)       60.8748   20.5103   10.7162 H         1 UNK         0.0000
   6394 H(3)       60.2879   22.0153   14.6943 H         1 UNK         0.0000
   6395 H(4)       58.3702   20.4831   14.9733 H         1 UNK         0.0000
   6396 H(5)       62.0674   22.5873   13.3065 H         1 UNK         0.0000
   6397 H(6)       57.1617   18.7175   14.2253 H         1 UNK         0.0000
   6398 H(7)       55.7078   16.3783   12.8580 H         1 UNK         0.0000
   6399 H(8)       55.3376   17.6160   13.9947 H         1 UNK         0.0000
   6400 H(9)       54.6088   17.5732   12.4025 H         1 UNK         0.0000
   6401 O(1)       57.4151   19.0458    1.7534 O.3       1 UNK         0.0000
   6402 O(2)       52.4412   22.9903    0.4267 O.2       1 UNK         0.0000
   6403 N(1)       53.0922   22.4660    2.5384 N.am      1 UNK         0.0000
   6404 C(1)       54.1995   21.6261    2.2843 C.ar      1 UNK         0.0000
   6405 C(2)       54.9224   21.6242    1.0915 C.ar      1 UNK         0.0000
   6406 C(3)       56.0000   20.7575    0.9348 C.ar      1 UNK         0.0000
   6407 C(4)       56.3703   19.8953    1.9637 C.ar      1 UNK         0.0000
   6408 C(5)       55.6670   19.9190    3.1674 C.ar      1 UNK         0.0000
   6409 C(6)       54.5892   20.7790    3.3223 C.ar      1 UNK         0.0000
   6410 C(7)       52.2849   23.0682    1.6501 C.2       1 UNK         0.0000
   6411 C(8)       51.1614   23.8697    2.2511 C.3       1 UNK         0.0000
   6412 H(1)       54.6439   22.2870    0.2815 H         1 UNK         0.0000
   6413 H(2)       56.5468   20.7682    0.0000 H         1 UNK         0.0000
   6414 H(3)       55.9599   19.2632    3.9780 H         1 UNK         0.0000
   6415 H(4)       54.0423   20.7954    4.2570 H         1 UNK         0.0000
   6416 H(5)       57.7394   18.6912    2.5902 H         1 UNK         0.0000
   6417 H(6)       52.8337   22.5611    3.5091 H         1 UNK         0.0000
   6418 H(7)       51.3799   24.9002    2.1418 H         1 UNK         0.0000
   6419 H(8)       51.0096   23.6625    3.2785 H         1 UNK         0.0000
   6420 H(9)       50.2809   23.7053    1.6863 H         1 UNK         0.0000
   6421 O(1)       44.3684   14.4593    7.7556 O.3       1 UNK         0.0000
   6422 O(2)       49.3423   18.4038    9.0824 O.2       1 UNK         0.0000
   6423 N(1)       48.6912   17.8795    6.9707 N.am      1 UNK         0.0000
   6424 C(1)       47.5839   17.0396    7.2247 C.ar      1 UNK         0.0000
   6425 C(2)       46.8611   17.0377    8.4175 C.ar      1 UNK         0.0000
   6426 C(3)       45.7834   16.1710    8.5742 C.ar      1 UNK         0.0000
   6427 C(4)       45.4131   15.3088    7.5453 C.ar      1 UNK         0.0000
   6428 C(5)       46.1164   15.3325    6.3416 C.ar      1 UNK         0.0000
   6429 C(6)       47.1943   16.1925    6.1867 C.ar      1 UNK         0.0000
   6430 C(7)       49.4986   18.4817    7.8589 C.2       1 UNK         0.0000
   6431 C(8)       50.6220   19.2832    7.2579 C.3       1 UNK         0.0000
   6432 H(1)       47.1395   17.7005    9.2275 H         1 UNK         0.0000
   6433 H(2)       45.2366   16.1817    9.5090 H         1 UNK         0.0000
   6434 H(3)       45.8235   14.6767    5.5310 H         1 UNK         0.0000
   6435 H(4)       47.7412   16.2089    5.2520 H         1 UNK         0.0000
   6436 H(5)       44.0440   14.1047    6.9188 H         1 UNK         0.0000
   6437 H(6)       48.9497   17.9746    5.9999 H         1 UNK         0.0000
   6438 H(7)       50.4036   20.3137    7.3672 H         1 UNK         0.0000
   6439 H(8)       50.7738   19.0760    6.2305 H         1 UNK         0.0000
   6440 H(9)       51.5026   19.1188    7.8227 H         1 UNK         0.0000
   6441 O(1)       51.6144   17.6462   18.2703 O.3       1 UNK         0.0000
   6442 O(2)       56.5883   13.7017   19.5971 O.2       1 UNK         0.0000
   6443 N(1)       55.9373   14.2260   17.4854 N.am      1 UNK         0.0000
   6444 C(1)       54.8299   15.0659   17.7395 C.ar      1 UNK         0.0000
   6445 C(2)       54.1071   15.0678   18.9323 C.ar      1 UNK         0.0000
   6446 C(3)       53.0294   15.9345   19.0889 C.ar      1 UNK         0.0000
   6447 C(4)       52.6591   16.7967   18.0600 C.ar      1 UNK         0.0000
   6448 C(5)       53.3625   16.7730   16.8563 C.ar      1 UNK         0.0000
   6449 C(6)       54.4403   15.9130   16.7014 C.ar      1 UNK         0.0000
   6450 C(7)       56.7446   13.6238   18.3737 C.2       1 UNK         0.0000
   6451 C(8)       57.8681   12.8223   17.7727 C.3       1 UNK         0.0000
   6452 H(1)       54.3856   14.4050   19.7422 H         1 UNK         0.0000
   6453 H(2)       52.4827   15.9238   20.0238 H         1 UNK         0.0000
   6454 H(3)       53.0695   17.4288   16.0457 H         1 UNK         0.0000
   6455 H(4)       54.9872   15.8966   15.7668 H         1 UNK         0.0000
   6456 H(5)       51.2901   18.0008   17.4335 H         1 UNK         0.0000
   6457 H(6)       56.1958   14.1310   16.5147 H         1 UNK         0.0000
   6458 H(7)       57.6496   11.7918   17.8820 H         1 UNK         0.0000
   6459 H(8)       58.0198   13.0295   16.7453 H         1 UNK         0.0000
   6460 H(9)       58.7486   12.9867   18.3375 H         1 UNK         0.0000
   6461 O(1)       51.1417   22.2327   19.4795 O.3       1 UNK         0.0000
   6462 O(2)       46.1678   18.2882   18.1527 O.2       1 UNK         0.0000
   6463 N(1)       46.8189   18.8125   20.2644 N.am      1 UNK         0.0000
   6464 C(1)       47.9262   19.6524   20.0104 C.ar      1 UNK         0.0000
   6465 C(2)       48.6490   19.6543   18.8176 C.ar      1 UNK         0.0000
   6466 C(3)       49.7267   20.5210   18.6609 C.ar      1 UNK         0.0000
   6467 C(4)       50.0970   21.3832   19.6898 C.ar      1 UNK         0.0000
   6468 C(5)       49.3936   21.3595   20.8935 C.ar      1 UNK         0.0000
   6469 C(6)       48.3158   20.4995   21.0484 C.ar      1 UNK         0.0000
   6470 C(7)       46.0115   18.2103   19.3762 C.2       1 UNK         0.0000
   6471 C(8)       44.8881   17.4088   19.9772 C.3       1 UNK         0.0000
   6472 H(1)       48.3706   18.9915   18.0076 H         1 UNK         0.0000
   6473 H(2)       50.2734   20.5103   17.7261 H         1 UNK         0.0000
   6474 H(3)       49.6866   22.0153   21.7041 H         1 UNK         0.0000
   6475 H(4)       47.7689   20.4831   21.9831 H         1 UNK         0.0000
   6476 H(5)       51.4661   22.5873   20.3163 H         1 UNK         0.0000
   6477 H(6)       46.5604   18.7175   21.2352 H         1 UNK         0.0000
   6478 H(7)       45.1065   16.3783   19.8678 H         1 UNK         0.0000
   6479 H(8)       44.7363   17.6160   21.0046 H         1 UNK         0.0000
   6480 H(9)       44.0075   17.5732   19.4124 H         1 UNK         0.0000
   6481 O(1)       55.4697   28.2188    8.9648 O.3       1 UNK         0.0000
   6482 O(2)       50.4958   32.1633    7.6380 O.2       1 UNK         0.0000
   6483 N(1)       51.1468   31.6390    9.7497 N.am      1 UNK         0.0000
   6484 C(1)       52.2541   30.7991    9.4956 C.ar      1 UNK         0.0000
   6485 C(2)       52.9770   30.7972    8.3028 C.ar      1 UNK         0.0000
   6486 C(3)       54.0546   29.9305    8.1462 C.ar      1 UNK         0.0000
   6487 C(4)       54.4250   29.0683    9.1751 C.ar      1 UNK         0.0000
   6488 C(5)       53.7216   29.0920   10.3788 C.ar      1 UNK         0.0000
   6489 C(6)       52.6438   29.9520   10.5337 C.ar      1 UNK         0.0000
   6490 C(7)       50.3395   32.2412    8.8614 C.2       1 UNK         0.0000
   6491 C(8)       49.2160   33.0427    9.4624 C.3       1 UNK         0.0000
   6492 H(1)       52.6985   31.4600    7.4929 H         1 UNK         0.0000
   6493 H(2)       54.6014   29.9412    7.2113 H         1 UNK         0.0000
   6494 H(3)       54.0146   28.4362   11.1894 H         1 UNK         0.0000
   6495 H(4)       52.0969   29.9684   11.4683 H         1 UNK         0.0000
   6496 H(5)       55.7940   27.8642    9.8016 H         1 UNK         0.0000
   6497 H(6)       50.8883   31.7340   10.7204 H         1 UNK         0.0000
   6498 H(7)       49.4345   34.0732    9.3531 H         1 UNK         0.0000
   6499 H(8)       49.0643   32.8355   10.4898 H         1 UNK         0.0000
   6500 H(9)       48.3355   32.8783    8.8976 H         1 UNK         0.0000
   6501 O(1)       45.3411   23.6323   14.7654 O.3       1 UNK         0.0000
   6502 O(2)       50.3150   27.5768   16.0922 O.2       1 UNK         0.0000
   6503 N(1)       49.6639   27.0525   13.9805 N.am      1 UNK         0.0000
   6504 C(1)       48.5566   26.2126   14.2346 C.ar      1 UNK         0.0000
   6505 C(2)       47.8338   26.2107   15.4274 C.ar      1 UNK         0.0000
   6506 C(3)       46.7561   25.3440   15.5840 C.ar      1 UNK         0.0000
   6507 C(4)       46.3858   24.4818   14.5551 C.ar      1 UNK         0.0000
   6508 C(5)       47.0891   24.5055   13.3514 C.ar      1 UNK         0.0000
   6509 C(6)       48.1670   25.3655   13.1965 C.ar      1 UNK         0.0000
   6510 C(7)       50.4713   27.6547   14.8687 C.2       1 UNK         0.0000
   6511 C(8)       51.5947   28.4562   14.2678 C.3       1 UNK         0.0000
   6512 H(1)       48.1122   26.8735   16.2373 H         1 UNK         0.0000
   6513 H(2)       46.2093   25.3547   16.5188 H         1 UNK         0.0000
   6514 H(3)       46.7962   23.8497   12.5408 H         1 UNK         0.0000
   6515 H(4)       48.7139   25.3819   12.2618 H         1 UNK         0.0000
   6516 H(5)       45.0167   23.2777   13.9286 H         1 UNK         0.0000
   6517 H(6)       49.9224   27.1475   13.0098 H         1 UNK         0.0000
   6518 H(7)       51.3763   29.4867   14.3771 H         1 UNK         0.0000
   6519 H(8)       51.7465   28.2490   13.2404 H         1 UNK         0.0000
   6520 H(9)       52.4752   28.2918   14.8326 H         1 UNK         0.0000
   6521 O(1)       49.6690   35.9922    4.2507 O.3       1 UNK         0.0000
   6522 O(2)       54.6429   32.0477    5.5774 O.2       1 UNK         0.0000
   6523 N(1)       53.9919   32.5720    3.4657 N.am      1 UNK         0.0000
   6524 C(1)       52.8846   33.4119    3.7198 C.ar      1 UNK         0.0000
   6525 C(2)       52.1617   33.4138    4.9126 C.ar      1 UNK         0.0000
   6526 C(3)       51.0841   34.2805    5.0693 C.ar      1 UNK         0.0000
   6527 C(4)       50.7137   35.1427    4.0404 C.ar      1 UNK         0.0000
   6528 C(5)       51.4171   35.1190    2.8367 C.ar      1 UNK         0.0000
   6529 C(6)       52.4949   34.2590    2.6817 C.ar      1 UNK         0.0000
   6530 C(7)       54.7992   31.9698    4.3540 C.2       1 UNK         0.0000
   6531 C(8)       55.9227   31.1683    3.7530 C.3       1 UNK         0.0000
   6532 H(1)       52.4402   32.7510    5.7226 H         1 UNK         0.0000
   6533 H(2)       50.5373   34.2698    6.0041 H         1 UNK         0.0000
   6534 H(3)       51.1241   35.7748    2.0261 H         1 UNK         0.0000
   6535 H(4)       53.0418   34.2426    1.7471 H         1 UNK         0.0000
   6536 H(5)       49.3447   36.3468    3.4139 H         1 UNK         0.0000
   6537 H(6)       54.2504   32.4770    2.4950 H         1 UNK         0.0000
   6538 H(7)       55.7042   30.1378    3.8623 H         1 UNK         0.0000
   6539 H(8)       56.0744   31.3755    2.7256 H         1 UNK         0.0000
   6540 H(9)       56.8032   31.3327    4.3178 H         1 UNK         0.0000
   6541 O(1)       49.1963   31.4057    5.4598 O.3       1 UNK         0.0000
   6542 O(2)       44.2224   27.4612    4.1331 O.2       1 UNK         0.0000
   6543 N(1)       44.8735   27.9855    6.2448 N.am      1 UNK         0.0000
   6544 C(1)       45.9808   28.8254    5.9907 C.ar      1 UNK         0.0000
   6545 C(2)       46.7036   28.8273    4.7979 C.ar      1 UNK         0.0000
   6546 C(3)       47.7813   29.6940    4.6412 C.ar      1 UNK         0.0000
   6547 C(4)       48.1516   30.5562    5.6701 C.ar      1 UNK         0.0000
   6548 C(5)       47.4483   30.5325    6.8738 C.ar      1 UNK         0.0000
   6549 C(6)       46.3704   29.6725    7.0288 C.ar      1 UNK         0.0000
   6550 C(7)       44.0661   27.3833    5.3565 C.2       1 UNK         0.0000
   6551 C(8)       42.9427   26.5818    5.9575 C.3       1 UNK         0.0000
   6552 H(1)       46.4252   28.1645    3.9879 H         1 UNK         0.0000
   6553 H(2)       48.3281   29.6833    3.7064 H         1 UNK         0.0000
   6554 H(3)       47.7412   31.1883    7.6844 H         1 UNK         0.0000
   6555 H(4)       45.8235   29.6561    7.9634 H         1 UNK         0.0000
   6556 H(5)       49.5207   31.7603    6.2966 H         1 UNK         0.0000
   6557 H(6)       44.6150   27.8905    7.2155 H         1 UNK         0.0000
   6558 H(7)       43.1611   25.5513    5.8482 H         1 UNK         0.0000
   6559 H(8)       42.7909   26.7890    6.9849 H         1 UNK         0.0000
   6560 H(9)       42.0621   26.7462    5.3927 H         1 UNK         0.0000
   6561 O(1)       56.4424   28.2188   15.9746 O.3       1 UNK         0.0000
   6562 O(2)       51.4685   32.1633   14.6478 O.2       1 UNK         0.0000
   6563 N(1)       52.1195   31.6390   16.7595 N.am      1 UNK         0.0000
   6564 C(1)       53.2268   30.7991   16.5055 C.ar      1 UNK         0.0000
   6565 C(2)       53.9497   30.7972   15.3126 C.ar      1 UNK         0.0000
   6566 C(3)       55.0273   29.9305   15.1560 C.ar      1 UNK         0.0000
   6567 C(4)       55.3976   29.0683   16.1849 C.ar      1 UNK         0.0000
   6568 C(5)       54.6943   29.0920   17.3886 C.ar      1 UNK         0.0000
   6569 C(6)       53.6165   29.9520   17.5435 C.ar      1 UNK         0.0000
   6570 C(7)       51.3122   32.2412   15.8713 C.2       1 UNK         0.0000
   6571 C(8)       50.1887   33.0427   16.4723 C.3       1 UNK         0.0000
   6572 H(1)       53.6712   31.4600   14.5027 H         1 UNK         0.0000
   6573 H(2)       55.5741   29.9412   14.2212 H         1 UNK         0.0000
   6574 H(3)       54.9873   28.4362   18.1992 H         1 UNK         0.0000
   6575 H(4)       53.0696   29.9684   18.4782 H         1 UNK         0.0000
   6576 H(5)       56.7667   27.8642   16.8114 H         1 UNK         0.0000
   6577 H(6)       51.8610   31.7340   17.7302 H         1 UNK         0.0000
   6578 H(7)       50.4072   34.0732   16.3629 H         1 UNK         0.0000
   6579 H(8)       50.0369   32.8355   17.4996 H         1 UNK         0.0000
   6580 H(9)       49.3082   32.8783   15.9074 H         1 UNK         0.0000
   6581 O(1)       57.8878   23.6323   21.7753 O.3       1 UNK         0.0000
   6582 O(2)       62.8617   27.5768   23.1020 O.2       1 UNK         0.0000
   6583 N(1)       62.2106   27.0525   20.9903 N.am      1 UNK         0.0000
   6584 C(1)       61.1033   26.2126   21.2444 C.ar      1 UNK         0.0000
   6585 C(2)       60.3805   26.2107   22.4372 C.ar      1 UNK         0.0000
   6586 C(3)       59.3028   25.3440   22.5939 C.ar      1 UNK         0.0000
   6587 C(4)       58.9325   24.4818   21.5650 C.ar      1 UNK         0.0000
   6588 C(5)       59.6358   24.5055   20.3613 C.ar      1 UNK         0.0000
   6589 C(6)       60.7136   25.3655   20.2063 C.ar      1 UNK         0.0000
   6590 C(7)       63.0180   27.6547   21.8786 C.2       1 UNK         0.0000
   6591 C(8)       64.1414   28.4562   21.2776 C.3       1 UNK         0.0000
   6592 H(1)       60.6589   26.8735   23.2472 H         1 UNK         0.0000
   6593 H(2)       58.7560   25.3547   23.5287 H         1 UNK         0.0000
   6594 H(3)       59.3429   23.8497   19.5507 H         1 UNK         0.0000
   6595 H(4)       61.2606   25.3819   19.2717 H         1 UNK         0.0000
   6596 H(5)       57.5634   23.2777   20.9385 H         1 UNK         0.0000
   6597 H(6)       62.4691   27.1475   20.0196 H         1 UNK         0.0000
   6598 H(7)       63.9230   29.4867   21.3869 H         1 UNK         0.0000
   6599 H(8)       64.2932   28.2490   20.2502 H         1 UNK         0.0000
   6600 H(9)       65.0219   28.2918   21.8424 H         1 UNK         0.0000
   6601 O(1)       50.6417   35.9922   11.2605 O.3       1 UNK         0.0000
   6602 O(2)       55.6156   32.0477   12.5873 O.2       1 UNK         0.0000
   6603 N(1)       54.9646   32.5720   10.4756 N.am      1 UNK         0.0000
   6604 C(1)       53.8572   33.4119   10.7296 C.ar      1 UNK         0.0000
   6605 C(2)       53.1344   33.4138   11.9225 C.ar      1 UNK         0.0000
   6606 C(3)       52.0567   34.2805   12.0791 C.ar      1 UNK         0.0000
   6607 C(4)       51.6864   35.1427   11.0502 C.ar      1 UNK         0.0000
   6608 C(5)       52.3898   35.1190    9.8465 C.ar      1 UNK         0.0000
   6609 C(6)       53.4676   34.2590    9.6916 C.ar      1 UNK         0.0000
   6610 C(7)       55.7719   31.9698   11.3638 C.2       1 UNK         0.0000
   6611 C(8)       56.8954   31.1683   10.7628 C.3       1 UNK         0.0000
   6612 H(1)       53.4129   32.7510   12.7324 H         1 UNK         0.0000
   6613 H(2)       51.5100   34.2698   13.0139 H         1 UNK         0.0000
   6614 H(3)       52.0968   35.7748    9.0359 H         1 UNK         0.0000
   6615 H(4)       54.0145   34.2426    8.7569 H         1 UNK         0.0000
   6616 H(5)       50.3174   36.3468   10.4237 H         1 UNK         0.0000
   6617 H(6)       55.2231   32.4770    9.5049 H         1 UNK         0.0000
   6618 H(7)       56.6769   30.1378   10.8722 H         1 UNK         0.0000
   6619 H(8)       57.0471   31.3755    9.7355 H         1 UNK         0.0000
   6620 H(9)       57.7759   31.3327   11.3277 H         1 UNK         0.0000
   6621 O(1)       61.7430   31.4057   12.4697 O.3       1 UNK         0.0000
   6622 O(2)       56.7691   27.4612   11.1429 O.2       1 UNK         0.0000
   6623 N(1)       57.4202   27.9855   13.2546 N.am      1 UNK         0.0000
   6624 C(1)       58.5275   28.8254   13.0005 C.ar      1 UNK         0.0000
   6625 C(2)       59.2503   28.8273   11.8077 C.ar      1 UNK         0.0000
   6626 C(3)       60.3280   29.6940   11.6511 C.ar      1 UNK         0.0000
   6627 C(4)       60.6983   30.5562   12.6800 C.ar      1 UNK         0.0000
   6628 C(5)       59.9950   30.5325   13.8837 C.ar      1 UNK         0.0000
   6629 C(6)       58.9171   29.6725   14.0386 C.ar      1 UNK         0.0000
   6630 C(7)       56.6128   27.3833   12.3664 C.2       1 UNK         0.0000
   6631 C(8)       55.4894   26.5818   12.9673 C.3       1 UNK         0.0000
   6632 H(1)       58.9719   28.1645   10.9978 H         1 UNK         0.0000
   6633 H(2)       60.8748   29.6833   10.7162 H         1 UNK         0.0000
   6634 H(3)       60.2879   31.1883   14.6943 H         1 UNK         0.0000
   6635 H(4)       58.3702   29.6561   14.9733 H         1 UNK         0.0000
   6636 H(5)       62.0674   31.7603   13.3065 H         1 UNK         0.0000
   6637 H(6)       57.1617   27.8905   14.2253 H         1 UNK         0.0000
   6638 H(7)       55.7078   25.5513   12.8580 H         1 UNK         0.0000
   6639 H(8)       55.3376   26.7890   13.9947 H         1 UNK         0.0000
   6640 H(9)       54.6088   26.7462   12.4025 H         1 UNK         0.0000
   6641 O(1)       57.4151   28.2188    1.7534 O.3       1 UNK         0.0000
   6642 O(2)       52.4412   32.1633    0.4267 O.2       1 UNK         0.0000
   6643 N(1)       53.0922   31.6390    2.5384 N.am      1 UNK         0.0000
   6644 C(1)       54.1995   30.7991    2.2843 C.ar      1 UNK         0.0000
   6645 C(2)       54.9224   30.7972    1.0915 C.ar      1 UNK         0.0000
   6646 C(3)       56.0000   29.9305    0.9348 C.ar      1 UNK         0.0000
   6647 C(4)       56.3703   29.0683    1.9637 C.ar      1 UNK         0.0000
   6648 C(5)       55.6670   29.0920    3.1674 C.ar      1 UNK         0.0000
   6649 C(6)       54.5892   29.9520    3.3223 C.ar      1 UNK         0.0000
   6650 C(7)       52.2849   32.2412    1.6501 C.2       1 UNK         0.0000
   6651 C(8)       51.1614   33.0427    2.2511 C.3       1 UNK         0.0000
   6652 H(1)       54.6439   31.4600    0.2815 H         1 UNK         0.0000
   6653 H(2)       56.5468   29.9412    0.0000 H         1 UNK         0.0000
   6654 H(3)       55.9599   28.4362    3.9780 H         1 UNK         0.0000
   6655 H(4)       54.0423   29.9684    4.2570 H         1 UNK         0.0000
   6656 H(5)       57.7394   27.8642    2.5902 H         1 UNK         0.0000
   6657 H(6)       52.8337   31.7340    3.5091 H         1 UNK         0.0000
   6658 H(7)       51.3799   34.0732    2.1418 H         1 UNK         0.0000
   6659 H(8)       51.0096   32.8355    3.2785 H         1 UNK         0.0000
   6660 H(9)       50.2809   32.8783    1.6863 H         1 UNK         0.0000
   6661 O(1)       44.3684   23.6323    7.7556 O.3       1 UNK         0.0000
   6662 O(2)       49.3423   27.5768    9.0824 O.2       1 UNK         0.0000
   6663 N(1)       48.6912   27.0525    6.9707 N.am      1 UNK         0.0000
   6664 C(1)       47.5839   26.2126    7.2247 C.ar      1 UNK         0.0000
   6665 C(2)       46.8611   26.2107    8.4175 C.ar      1 UNK         0.0000
   6666 C(3)       45.7834   25.3440    8.5742 C.ar      1 UNK         0.0000
   6667 C(4)       45.4131   24.4818    7.5453 C.ar      1 UNK         0.0000
   6668 C(5)       46.1164   24.5055    6.3416 C.ar      1 UNK         0.0000
   6669 C(6)       47.1943   25.3655    6.1867 C.ar      1 UNK         0.0000
   6670 C(7)       49.4986   27.6547    7.8589 C.2       1 UNK         0.0000
   6671 C(8)       50.6220   28.4562    7.2579 C.3       1 UNK         0.0000
   6672 H(1)       47.1395   26.8735    9.2275 H         1 UNK         0.0000
   6673 H(2)       45.2366   25.3547    9.5090 H         1 UNK         0.0000
   6674 H(3)       45.8235   23.8497    5.5310 H         1 UNK         0.0000
   6675 H(4)       47.7412   25.3819    5.2520 H         1 UNK         0.0000
   6676 H(5)       44.0440   23.2777    6.9188 H         1 UNK         0.0000
   6677 H(6)       48.9497   27.1475    5.9999 H         1 UNK         0.0000
   6678 H(7)       50.4036   29.4867    7.3672 H         1 UNK         0.0000
   6679 H(8)       50.7738   28.2490    6.2305 H         1 UNK         0.0000
   6680 H(9)       51.5026   28.2918    7.8227 H         1 UNK         0.0000
   6681 O(1)       51.6144   26.8192   18.2703 O.3       1 UNK         0.0000
   6682 O(2)       56.5883   22.8747   19.5971 O.2       1 UNK         0.0000
   6683 N(1)       55.9373   23.3990   17.4854 N.am      1 UNK         0.0000
   6684 C(1)       54.8299   24.2389   17.7395 C.ar      1 UNK         0.0000
   6685 C(2)       54.1071   24.2408   18.9323 C.ar      1 UNK         0.0000
   6686 C(3)       53.0294   25.1075   19.0889 C.ar      1 UNK         0.0000
   6687 C(4)       52.6591   25.9697   18.0600 C.ar      1 UNK         0.0000
   6688 C(5)       53.3625   25.9460   16.8563 C.ar      1 UNK         0.0000
   6689 C(6)       54.4403   25.0860   16.7014 C.ar      1 UNK         0.0000
   6690 C(7)       56.7446   22.7968   18.3737 C.2       1 UNK         0.0000
   6691 C(8)       57.8681   21.9953   17.7727 C.3       1 UNK         0.0000
   6692 H(1)       54.3856   23.5780   19.7422 H         1 UNK         0.0000
   6693 H(2)       52.4827   25.0968   20.0238 H         1 UNK         0.0000
   6694 H(3)       53.0695   26.6018   16.0457 H         1 UNK         0.0000
   6695 H(4)       54.9872   25.0696   15.7668 H         1 UNK         0.0000
   6696 H(5)       51.2901   27.1738   17.4335 H         1 UNK         0.0000
   6697 H(6)       56.1958   23.3040   16.5147 H         1 UNK         0.0000
   6698 H(7)       57.6496   20.9648   17.8820 H         1 UNK         0.0000
   6699 H(8)       58.0198   22.2025   16.7453 H         1 UNK         0.0000
   6700 H(9)       58.7486   22.1597   18.3375 H         1 UNK         0.0000
   6701 O(1)       51.1417   31.4057   19.4795 O.3       1 UNK         0.0000
   6702 O(2)       46.1678   27.4612   18.1527 O.2       1 UNK         0.0000
   6703 N(1)       46.8189   27.9855   20.2644 N.am      1 UNK         0.0000
   6704 C(1)       47.9262   28.8254   20.0104 C.ar      1 UNK         0.0000
   6705 C(2)       48.6490   28.8273   18.8176 C.ar      1 UNK         0.0000
   6706 C(3)       49.7267   29.6940   18.6609 C.ar      1 UNK         0.0000
   6707 C(4)       50.0970   30.5562   19.6898 C.ar      1 UNK         0.0000
   6708 C(5)       49.3936   30.5325   20.8935 C.ar      1 UNK         0.0000
   6709 C(6)       48.3158   29.6725   21.0484 C.ar      1 UNK         0.0000
   6710 C(7)       46.0115   27.3833   19.3762 C.2       1 UNK         0.0000
   6711 C(8)       44.8881   26.5818   19.9772 C.3       1 UNK         0.0000
   6712 H(1)       48.3706   28.1645   18.0076 H         1 UNK         0.0000
   6713 H(2)       50.2734   29.6833   17.7261 H         1 UNK         0.0000
   6714 H(3)       49.6866   31.1883   21.7041 H         1 UNK         0.0000
   6715 H(4)       47.7689   29.6561   21.9831 H         1 UNK         0.0000
   6716 H(5)       51.4661   31.7603   20.3163 H         1 UNK         0.0000
   6717 H(6)       46.5604   27.8905   21.2352 H         1 UNK         0.0000
   6718 H(7)       45.1065   25.5513   19.8678 H         1 UNK         0.0000
   6719 H(8)       44.7363   26.7890   21.0046 H         1 UNK         0.0000
   6720 H(9)       44.0075   26.7462   19.4124 H         1 UNK         0.0000
   6721 O(1)       55.4697   37.3918    8.9648 O.3       1 UNK         0.0000
   6722 O(2)       50.4958   41.3363    7.6380 O.2       1 UNK         0.0000
   6723 N(1)       51.1468   40.8120    9.7497 N.am      1 UNK         0.0000
   6724 C(1)       52.2541   39.9721    9.4956 C.ar      1 UNK         0.0000
   6725 C(2)       52.9770   39.9702    8.3028 C.ar      1 UNK         0.0000
   6726 C(3)       54.0546   39.1035    8.1462 C.ar      1 UNK         0.0000
   6727 C(4)       54.4250   38.2413    9.1751 C.ar      1 UNK         0.0000
   6728 C(5)       53.7216   38.2650   10.3788 C.ar      1 UNK         0.0000
   6729 C(6)       52.6438   39.1250   10.5337 C.ar      1 UNK         0.0000
   6730 C(7)       50.3395   41.4142    8.8614 C.2       1 UNK         0.0000
   6731 C(8)       49.2160   42.2157    9.4624 C.3       1 UNK         0.0000
   6732 H(1)       52.6985   40.6330    7.4929 H         1 UNK         0.0000
   6733 H(2)       54.6014   39.1142    7.2113 H         1 UNK         0.0000
   6734 H(3)       54.0146   37.6092   11.1894 H         1 UNK         0.0000
   6735 H(4)       52.0969   39.1414   11.4683 H         1 UNK         0.0000
   6736 H(5)       55.7940   37.0372    9.8016 H         1 UNK         0.0000
   6737 H(6)       50.8883   40.9070   10.7204 H         1 UNK         0.0000
   6738 H(7)       49.4345   43.2462    9.3531 H         1 UNK         0.0000
   6739 H(8)       49.0643   42.0085   10.4898 H         1 UNK         0.0000
   6740 H(9)       48.3355   42.0513    8.8976 H         1 UNK         0.0000
   6741 O(1)       45.3411   32.8053   14.7654 O.3       1 UNK         0.0000
   6742 O(2)       50.3150   36.7498   16.0922 O.2       1 UNK         0.0000
   6743 N(1)       49.6639   36.2255   13.9805 N.am      1 UNK         0.0000
   6744 C(1)       48.5566   35.3856   14.2346 C.ar      1 UNK         0.0000
   6745 C(2)       47.8338   35.3837   15.4274 C.ar      1 UNK         0.0000
   6746 C(3)       46.7561   34.5170   15.5840 C.ar      1 UNK         0.0000
   6747 C(4)       46.3858   33.6548   14.5551 C.ar      1 UNK         0.0000
   6748 C(5)       47.0891   33.6785   13.3514 C.ar      1 UNK         0.0000
   6749 C(6)       48.1670   34.5385   13.1965 C.ar      1 UNK         0.0000
   6750 C(7)       50.4713   36.8277   14.8687 C.2       1 UNK         0.0000
   6751 C(8)       51.5947   37.6292   14.2678 C.3       1 UNK         0.0000
   6752 H(1)       48.1122   36.0465   16.2373 H         1 UNK         0.0000
   6753 H(2)       46.2093   34.5277   16.5188 H         1 UNK         0.0000
   6754 H(3)       46.7962   33.0227   12.5408 H         1 UNK         0.0000
   6755 H(4)       48.7139   34.5549   12.2618 H         1 UNK         0.0000
   6756 H(5)       45.0167   32.4507   13.9286 H         1 UNK         0.0000
   6757 H(6)       49.9224   36.3205   13.0098 H         1 UNK         0.0000
   6758 H(7)       51.3763   38.6597   14.3771 H         1 UNK         0.0000
   6759 H(8)       51.7465   37.4220   13.2404 H         1 UNK         0.0000
   6760 H(9)       52.4752   37.4648   14.8326 H         1 UNK         0.0000
   6761 O(1)       49.6690   45.1652    4.2507 O.3       1 UNK         0.0000
   6762 O(2)       54.6429   41.2207    5.5774 O.2       1 UNK         0.0000
   6763 N(1)       53.9919   41.7450    3.4657 N.am      1 UNK         0.0000
   6764 C(1)       52.8846   42.5849    3.7198 C.ar      1 UNK         0.0000
   6765 C(2)       52.1617   42.5868    4.9126 C.ar      1 UNK         0.0000
   6766 C(3)       51.0841   43.4535    5.0693 C.ar      1 UNK         0.0000
   6767 C(4)       50.7137   44.3157    4.0404 C.ar      1 UNK         0.0000
   6768 C(5)       51.4171   44.2920    2.8367 C.ar      1 UNK         0.0000
   6769 C(6)       52.4949   43.4320    2.6817 C.ar      1 UNK         0.0000
   6770 C(7)       54.7992   41.1428    4.3540 C.2       1 UNK         0.0000
   6771 C(8)       55.9227   40.3413    3.7530 C.3       1 UNK         0.0000
   6772 H(1)       52.4402   41.9240    5.7226 H         1 UNK         0.0000
   6773 H(2)       50.5373   43.4428    6.0041 H         1 UNK         0.0000
   6774 H(3)       51.1241   44.9478    2.0261 H         1 UNK         0.0000
   6775 H(4)       53.0418   43.4156    1.7471 H         1 UNK         0.0000
   6776 H(5)       49.3447   45.5198    3.4139 H         1 UNK         0.0000
   6777 H(6)       54.2504   41.6500    2.4950 H         1 UNK         0.0000
   6778 H(7)       55.7042   39.3108    3.8623 H         1 UNK         0.0000
   6779 H(8)       56.0744   40.5485    2.7256 H         1 UNK         0.0000
   6780 H(9)       56.8032   40.5057    4.3178 H         1 UNK         0.0000
   6781 O(1)       49.1963   40.5787    5.4598 O.3       1 UNK         0.0000
   6782 O(2)       44.2224   36.6342    4.1331 O.2       1 UNK         0.0000
   6783 N(1)       44.8735   37.1585    6.2448 N.am      1 UNK         0.0000
   6784 C(1)       45.9808   37.9984    5.9907 C.ar      1 UNK         0.0000
   6785 C(2)       46.7036   38.0003    4.7979 C.ar      1 UNK         0.0000
   6786 C(3)       47.7813   38.8670    4.6412 C.ar      1 UNK         0.0000
   6787 C(4)       48.1516   39.7292    5.6701 C.ar      1 UNK         0.0000
   6788 C(5)       47.4483   39.7055    6.8738 C.ar      1 UNK         0.0000
   6789 C(6)       46.3704   38.8455    7.0288 C.ar      1 UNK         0.0000
   6790 C(7)       44.0661   36.5563    5.3565 C.2       1 UNK         0.0000
   6791 C(8)       42.9427   35.7548    5.9575 C.3       1 UNK         0.0000
   6792 H(1)       46.4252   37.3375    3.9879 H         1 UNK         0.0000
   6793 H(2)       48.3281   38.8563    3.7064 H         1 UNK         0.0000
   6794 H(3)       47.7412   40.3613    7.6844 H         1 UNK         0.0000
   6795 H(4)       45.8235   38.8291    7.9634 H         1 UNK         0.0000
   6796 H(5)       49.5207   40.9333    6.2966 H         1 UNK         0.0000
   6797 H(6)       44.6150   37.0635    7.2155 H         1 UNK         0.0000
   6798 H(7)       43.1611   34.7243    5.8482 H         1 UNK         0.0000
   6799 H(8)       42.7909   35.9620    6.9849 H         1 UNK         0.0000
   6800 H(9)       42.0621   35.9192    5.3927 H         1 UNK         0.0000
   6801 O(1)       56.4424   37.3918   15.9746 O.3       1 UNK         0.0000
   6802 O(2)       51.4685   41.3363   14.6478 O.2       1 UNK         0.0000
   6803 N(1)       52.1195   40.8120   16.7595 N.am      1 UNK         0.0000
   6804 C(1)       53.2268   39.9721   16.5055 C.ar      1 UNK         0.0000
   6805 C(2)       53.9497   39.9702   15.3126 C.ar      1 UNK         0.0000
   6806 C(3)       55.0273   39.1035   15.1560 C.ar      1 UNK         0.0000
   6807 C(4)       55.3976   38.2413   16.1849 C.ar      1 UNK         0.0000
   6808 C(5)       54.6943   38.2650   17.3886 C.ar      1 UNK         0.0000
   6809 C(6)       53.6165   39.1250   17.5435 C.ar      1 UNK         0.0000
   6810 C(7)       51.3122   41.4142   15.8713 C.2       1 UNK         0.0000
   6811 C(8)       50.1887   42.2157   16.4723 C.3       1 UNK         0.0000
   6812 H(1)       53.6712   40.6330   14.5027 H         1 UNK         0.0000
   6813 H(2)       55.5741   39.1142   14.2212 H         1 UNK         0.0000
   6814 H(3)       54.9873   37.6092   18.1992 H         1 UNK         0.0000
   6815 H(4)       53.0696   39.1414   18.4782 H         1 UNK         0.0000
   6816 H(5)       56.7667   37.0372   16.8114 H         1 UNK         0.0000
   6817 H(6)       51.8610   40.9070   17.7302 H         1 UNK         0.0000
   6818 H(7)       50.4072   43.2462   16.3629 H         1 UNK         0.0000
   6819 H(8)       50.0369   42.0085   17.4996 H         1 UNK         0.0000
   6820 H(9)       49.3082   42.0513   15.9074 H         1 UNK         0.0000
   6821 O(1)       57.8878   32.8053   21.7753 O.3       1 UNK         0.0000
   6822 O(2)       62.8617   36.7498   23.1020 O.2       1 UNK         0.0000
   6823 N(1)       62.2106   36.2255   20.9903 N.am      1 UNK         0.0000
   6824 C(1)       61.1033   35.3856   21.2444 C.ar      1 UNK         0.0000
   6825 C(2)       60.3805   35.3837   22.4372 C.ar      1 UNK         0.0000
   6826 C(3)       59.3028   34.5170   22.5939 C.ar      1 UNK         0.0000
   6827 C(4)       58.9325   33.6548   21.5650 C.ar      1 UNK         0.0000
   6828 C(5)       59.6358   33.6785   20.3613 C.ar      1 UNK         0.0000
   6829 C(6)       60.7136   34.5385   20.2063 C.ar      1 UNK         0.0000
   6830 C(7)       63.0180   36.8277   21.8786 C.2       1 UNK         0.0000
   6831 C(8)       64.1414   37.6292   21.2776 C.3       1 UNK         0.0000
   6832 H(1)       60.6589   36.0465   23.2472 H         1 UNK         0.0000
   6833 H(2)       58.7560   34.5277   23.5287 H         1 UNK         0.0000
   6834 H(3)       59.3429   33.0227   19.5507 H         1 UNK         0.0000
   6835 H(4)       61.2606   34.5549   19.2717 H         1 UNK         0.0000
   6836 H(5)       57.5634   32.4507   20.9385 H         1 UNK         0.0000
   6837 H(6)       62.4691   36.3205   20.0196 H         1 UNK         0.0000
   6838 H(7)       63.9230   38.6597   21.3869 H         1 UNK         0.0000
   6839 H(8)       64.2932   37.4220   20.2502 H         1 UNK         0.0000
   6840 H(9)       65.0219   37.4648   21.8424 H         1 UNK         0.0000
   6841 O(1)       50.6417   45.1652   11.2605 O.3       1 UNK         0.0000
   6842 O(2)       55.6156   41.2207   12.5873 O.2       1 UNK         0.0000
   6843 N(1)       54.9646   41.7450   10.4756 N.am      1 UNK         0.0000
   6844 C(1)       53.8572   42.5849   10.7296 C.ar      1 UNK         0.0000
   6845 C(2)       53.1344   42.5868   11.9225 C.ar      1 UNK         0.0000
   6846 C(3)       52.0567   43.4535   12.0791 C.ar      1 UNK         0.0000
   6847 C(4)       51.6864   44.3157   11.0502 C.ar      1 UNK         0.0000
   6848 C(5)       52.3898   44.2920    9.8465 C.ar      1 UNK         0.0000
   6849 C(6)       53.4676   43.4320    9.6916 C.ar      1 UNK         0.0000
   6850 C(7)       55.7719   41.1428   11.3638 C.2       1 UNK         0.0000
   6851 C(8)       56.8954   40.3413   10.7628 C.3       1 UNK         0.0000
   6852 H(1)       53.4129   41.9240   12.7324 H         1 UNK         0.0000
   6853 H(2)       51.5100   43.4428   13.0139 H         1 UNK         0.0000
   6854 H(3)       52.0968   44.9478    9.0359 H         1 UNK         0.0000
   6855 H(4)       54.0145   43.4156    8.7569 H         1 UNK         0.0000
   6856 H(5)       50.3174   45.5198   10.4237 H         1 UNK         0.0000
   6857 H(6)       55.2231   41.6500    9.5049 H         1 UNK         0.0000
   6858 H(7)       56.6769   39.3108   10.8722 H         1 UNK         0.0000
   6859 H(8)       57.0471   40.5485    9.7355 H         1 UNK         0.0000
   6860 H(9)       57.7759   40.5057   11.3277 H         1 UNK         0.0000
   6861 O(1)       61.7430   40.5787   12.4697 O.3       1 UNK         0.0000
   6862 O(2)       56.7691   36.6342   11.1429 O.2       1 UNK         0.0000
   6863 N(1)       57.4202   37.1585   13.2546 N.am      1 UNK         0.0000
   6864 C(1)       58.5275   37.9984   13.0005 C.ar      1 UNK         0.0000
   6865 C(2)       59.2503   38.0003   11.8077 C.ar      1 UNK         0.0000
   6866 C(3)       60.3280   38.8670   11.6511 C.ar      1 UNK         0.0000
   6867 C(4)       60.6983   39.7292   12.6800 C.ar      1 UNK         0.0000
   6868 C(5)       59.9950   39.7055   13.8837 C.ar      1 UNK         0.0000
   6869 C(6)       58.9171   38.8455   14.0386 C.ar      1 UNK         0.0000
   6870 C(7)       56.6128   36.5563   12.3664 C.2       1 UNK         0.0000
   6871 C(8)       55.4894   35.7548   12.9673 C.3       1 UNK         0.0000
   6872 H(1)       58.9719   37.3375   10.9978 H         1 UNK         0.0000
   6873 H(2)       60.8748   38.8563   10.7162 H         1 UNK         0.0000
   6874 H(3)       60.2879   40.3613   14.6943 H         1 UNK         0.0000
   6875 H(4)       58.3702   38.8291   14.9733 H         1 UNK         0.0000
   6876 H(5)       62.0674   40.9333   13.3065 H         1 UNK         0.0000
   6877 H(6)       57.1617   37.0635   14.2253 H         1 UNK         0.0000
   6878 H(7)       55.7078   34.7243   12.8580 H         1 UNK         0.0000
   6879 H(8)       55.3376   35.9620   13.9947 H         1 UNK         0.0000
   6880 H(9)       54.6088   35.9192   12.4025 H         1 UNK         0.0000
   6881 O(1)       57.4151   37.3918    1.7534 O.3       1 UNK         0.0000
   6882 O(2)       52.4412   41.3363    0.4267 O.2       1 UNK         0.0000
   6883 N(1)       53.0922   40.8120    2.5384 N.am      1 UNK         0.0000
   6884 C(1)       54.1995   39.9721    2.2843 C.ar      1 UNK         0.0000
   6885 C(2)       54.9224   39.9702    1.0915 C.ar      1 UNK         0.0000
   6886 C(3)       56.0000   39.1035    0.9348 C.ar      1 UNK         0.0000
   6887 C(4)       56.3703   38.2413    1.9637 C.ar      1 UNK         0.0000
   6888 C(5)       55.6670   38.2650    3.1674 C.ar      1 UNK         0.0000
   6889 C(6)       54.5892   39.1250    3.3223 C.ar      1 UNK         0.0000
   6890 C(7)       52.2849   41.4142    1.6501 C.2       1 UNK         0.0000
   6891 C(8)       51.1614   42.2157    2.2511 C.3       1 UNK         0.0000
   6892 H(1)       54.6439   40.6330    0.2815 H         1 UNK         0.0000
   6893 H(2)       56.5468   39.1142    0.0000 H         1 UNK         0.0000
   6894 H(3)       55.9599   37.6092    3.9780 H         1 UNK         0.0000
   6895 H(4)       54.0423   39.1414    4.2570 H         1 UNK         0.0000
   6896 H(5)       57.7394   37.0372    2.5902 H         1 UNK         0.0000
   6897 H(6)       52.8337   40.9070    3.5091 H         1 UNK         0.0000
   6898 H(7)       51.3799   43.2462    2.1418 H         1 UNK         0.0000
   6899 H(8)       51.0096   42.0085    3.2785 H         1 UNK         0.0000
   6900 H(9)       50.2809   42.0513    1.6863 H         1 UNK         0.0000
   6901 O(1)       44.3684   32.8053    7.7556 O.3       1 UNK         0.0000
   6902 O(2)       49.3423   36.7498    9.0824 O.2       1 UNK         0.0000
   6903 N(1)       48.6912   36.2255    6.9707 N.am      1 UNK         0.0000
   6904 C(1)       47.5839   35.3856    7.2247 C.ar      1 UNK         0.0000
   6905 C(2)       46.8611   35.3837    8.4175 C.ar      1 UNK         0.0000
   6906 C(3)       45.7834   34.5170    8.5742 C.ar      1 UNK         0.0000
   6907 C(4)       45.4131   33.6548    7.5453 C.ar      1 UNK         0.0000
   6908 C(5)       46.1164   33.6785    6.3416 C.ar      1 UNK         0.0000
   6909 C(6)       47.1943   34.5385    6.1867 C.ar      1 UNK         0.0000
   6910 C(7)       49.4986   36.8277    7.8589 C.2       1 UNK         0.0000
   6911 C(8)       50.6220   37.6292    7.2579 C.3       1 UNK         0.0000
   6912 H(1)       47.1395   36.0465    9.2275 H         1 UNK         0.0000
   6913 H(2)       45.2366   34.5277    9.5090 H         1 UNK         0.0000
   6914 H(3)       45.8235   33.0227    5.5310 H         1 UNK         0.0000
   6915 H(4)       47.7412   34.5549    5.2520 H         1 UNK         0.0000
   6916 H(5)       44.0440   32.4507    6.9188 H         1 UNK         0.0000
   6917 H(6)       48.9497   36.3205    5.9999 H         1 UNK         0.0000
   6918 H(7)       50.4036   38.6597    7.3672 H         1 UNK         0.0000
   6919 H(8)       50.7738   37.4220    6.2305 H         1 UNK         0.0000
   6920 H(9)       51.5026   37.4648    7.8227 H         1 UNK         0.0000
   6921 O(1)       51.6144   35.9922   18.2703 O.3       1 UNK         0.0000
   6922 O(2)       56.5883   32.0477   19.5971 O.2       1 UNK         0.0000
   6923 N(1)       55.9373   32.5720   17.4854 N.am      1 UNK         0.0000
   6924 C(1)       54.8299   33.4119   17.7395 C.ar      1 UNK         0.0000
   6925 C(2)       54.1071   33.4138   18.9323 C.ar      1 UNK         0.0000
   6926 C(3)       53.0294   34.2805   19.0889 C.ar      1 UNK         0.0000
   6927 C(4)       52.6591   35.1427   18.0600 C.ar      1 UNK         0.0000
   6928 C(5)       53.3625   35.1190   16.8563 C.ar      1 UNK         0.0000
   6929 C(6)       54.4403   34.2590   16.7014 C.ar      1 UNK         0.0000
   6930 C(7)       56.7446   31.9698   18.3737 C.2       1 UNK         0.0000
   6931 C(8)       57.8681   31.1683   17.7727 C.3       1 UNK         0.0000
   6932 H(1)       54.3856   32.7510   19.7422 H         1 UNK         0.0000
   6933 H(2)       52.4827   34.2698   20.0238 H         1 UNK         0.0000
   6934 H(3)       53.0695   35.7748   16.0457 H         1 UNK         0.0000
   6935 H(4)       54.9872   34.2426   15.7668 H         1 UNK         0.0000
   6936 H(5)       51.2901   36.3468   17.4335 H         1 UNK         0.0000
   6937 H(6)       56.1958   32.4770   16.5147 H         1 UNK         0.0000
   6938 H(7)       57.6496   30.1378   17.8820 H         1 UNK         0.0000
   6939 H(8)       58.0198   31.3755   16.7453 H         1 UNK         0.0000
   6940 H(9)       58.7486   31.3327   18.3375 H         1 UNK         0.0000
   6941 O(1)       51.1417   40.5787   19.4795 O.3       1 UNK         0.0000
   6942 O(2)       46.1678   36.6342   18.1527 O.2       1 UNK         0.0000
   6943 N(1)       46.8189   37.1585   20.2644 N.am      1 UNK         0.0000
   6944 C(1)       47.9262   37.9984   20.0104 C.ar      1 UNK         0.0000
   6945 C(2)       48.6490   38.0003   18.8176 C.ar      1 UNK         0.0000
   6946 C(3)       49.7267   38.8670   18.6609 C.ar      1 UNK         0.0000
   6947 C(4)       50.0970   39.7292   19.6898 C.ar      1 UNK         0.0000
   6948 C(5)       49.3936   39.7055   20.8935 C.ar      1 UNK         0.0000
   6949 C(6)       48.3158   38.8455   21.0484 C.ar      1 UNK         0.0000
   6950 C(7)       46.0115   36.5563   19.3762 C.2       1 UNK         0.0000
   6951 C(8)       44.8881   35.7548   19.9772 C.3       1 UNK         0.0000
   6952 H(1)       48.3706   37.3375   18.0076 H         1 UNK         0.0000
   6953 H(2)       50.2734   38.8563   17.7261 H         1 UNK         0.0000
   6954 H(3)       49.6866   40.3613   21.7041 H         1 UNK         0.0000
   6955 H(4)       47.7689   38.8291   21.9831 H         1 UNK         0.0000
   6956 H(5)       51.4661   40.9333   20.3163 H         1 UNK         0.0000
   6957 H(6)       46.5604   37.0635   21.2352 H         1 UNK         0.0000
   6958 H(7)       45.1065   34.7243   19.8678 H         1 UNK         0.0000
   6959 H(8)       44.7363   35.9620   21.0046 H         1 UNK         0.0000
   6960 H(9)       44.0075   35.9192   19.4124 H         1 UNK         0.0000
   6961 O(1)       55.4697   46.5648    8.9648 O.3       1 UNK         0.0000
   6962 O(2)       50.4958   50.5093    7.6380 O.2       1 UNK         0.0000
   6963 N(1)       51.1468   49.9850    9.7497 N.am      1 UNK         0.0000
   6964 C(1)       52.2541   49.1451    9.4956 C.ar      1 UNK         0.0000
   6965 C(2)       52.9770   49.1432    8.3028 C.ar      1 UNK         0.0000
   6966 C(3)       54.0546   48.2765    8.1462 C.ar      1 UNK         0.0000
   6967 C(4)       54.4250   47.4143    9.1751 C.ar      1 UNK         0.0000
   6968 C(5)       53.7216   47.4380   10.3788 C.ar      1 UNK         0.0000
   6969 C(6)       52.6438   48.2980   10.5337 C.ar      1 UNK         0.0000
   6970 C(7)       50.3395   50.5872    8.8614 C.2       1 UNK         0.0000
   6971 C(8)       49.2160   51.3887    9.4624 C.3       1 UNK         0.0000
   6972 H(1)       52.6985   49.8060    7.4929 H         1 UNK         0.0000
   6973 H(2)       54.6014   48.2872    7.2113 H         1 UNK         0.0000
   6974 H(3)       54.0146   46.7822   11.1894 H         1 UNK         0.0000
   6975 H(4)       52.0969   48.3144   11.4683 H         1 UNK         0.0000
   6976 H(5)       55.7940   46.2102    9.8016 H         1 UNK         0.0000
   6977 H(6)       50.8883   50.0801   10.7204 H         1 UNK         0.0000
   6978 H(7)       49.4345   52.4192    9.3531 H         1 UNK         0.0000
   6979 H(8)       49.0643   51.1815   10.4898 H         1 UNK         0.0000
   6980 H(9)       48.3355   51.2243    8.8976 H         1 UNK         0.0000
   6981 O(1)       45.3411   41.9783   14.7654 O.3       1 UNK         0.0000
   6982 O(2)       50.3150   45.9228   16.0922 O.2       1 UNK         0.0000
   6983 N(1)       49.6639   45.3985   13.9805 N.am      1 UNK         0.0000
   6984 C(1)       48.5566   44.5586   14.2346 C.ar      1 UNK         0.0000
   6985 C(2)       47.8338   44.5567   15.4274 C.ar      1 UNK         0.0000
   6986 C(3)       46.7561   43.6900   15.5840 C.ar      1 UNK         0.0000
   6987 C(4)       46.3858   42.8278   14.5551 C.ar      1 UNK         0.0000
   6988 C(5)       47.0891   42.8515   13.3514 C.ar      1 UNK         0.0000
   6989 C(6)       48.1670   43.7115   13.1965 C.ar      1 UNK         0.0000
   6990 C(7)       50.4713   46.0007   14.8687 C.2       1 UNK         0.0000
   6991 C(8)       51.5947   46.8022   14.2678 C.3       1 UNK         0.0000
   6992 H(1)       48.1122   45.2195   16.2373 H         1 UNK         0.0000
   6993 H(2)       46.2093   43.7007   16.5188 H         1 UNK         0.0000
   6994 H(3)       46.7962   42.1957   12.5408 H         1 UNK         0.0000
   6995 H(4)       48.7139   43.7279   12.2618 H         1 UNK         0.0000
   6996 H(5)       45.0167   41.6237   13.9286 H         1 UNK         0.0000
   6997 H(6)       49.9224   45.4936   13.0098 H         1 UNK         0.0000
   6998 H(7)       51.3763   47.8327   14.3771 H         1 UNK         0.0000
   6999 H(8)       51.7465   46.5950   13.2404 H         1 UNK         0.0000
   7000 H(9)       52.4752   46.6378   14.8326 H         1 UNK         0.0000
   7001 O(1)       49.6690   54.3382    4.2507 O.3       1 UNK         0.0000
   7002 O(2)       54.6429   50.3937    5.5774 O.2       1 UNK         0.0000
   7003 N(1)       53.9919   50.9180    3.4657 N.am      1 UNK         0.0000
   7004 C(1)       52.8846   51.7579    3.7198 C.ar      1 UNK         0.0000
   7005 C(2)       52.1617   51.7598    4.9126 C.ar      1 UNK         0.0000
   7006 C(3)       51.0841   52.6265    5.0693 C.ar      1 UNK         0.0000
   7007 C(4)       50.7137   53.4887    4.0404 C.ar      1 UNK         0.0000
   7008 C(5)       51.4171   53.4650    2.8367 C.ar      1 UNK         0.0000
   7009 C(6)       52.4949   52.6050    2.6817 C.ar      1 UNK         0.0000
   7010 C(7)       54.7992   50.3158    4.3540 C.2       1 UNK         0.0000
   7011 C(8)       55.9227   49.5143    3.7530 C.3       1 UNK         0.0000
   7012 H(1)       52.4402   51.0970    5.7226 H         1 UNK         0.0000
   7013 H(2)       50.5373   52.6158    6.0041 H         1 UNK         0.0000
   7014 H(3)       51.1241   54.1208    2.0261 H         1 UNK         0.0000
   7015 H(4)       53.0418   52.5886    1.7471 H         1 UNK         0.0000
   7016 H(5)       49.3447   54.6928    3.4139 H         1 UNK         0.0000
   7017 H(6)       54.2504   50.8230    2.4950 H         1 UNK         0.0000
   7018 H(7)       55.7042   48.4838    3.8623 H         1 UNK         0.0000
   7019 H(8)       56.0744   49.7215    2.7256 H         1 UNK         0.0000
   7020 H(9)       56.8032   49.6787    4.3178 H         1 UNK         0.0000
   7021 O(1)       49.1963   49.7517    5.4598 O.3       1 UNK         0.0000
   7022 O(2)       44.2224   45.8072    4.1331 O.2       1 UNK         0.0000
   7023 N(1)       44.8735   46.3315    6.2448 N.am      1 UNK         0.0000
   7024 C(1)       45.9808   47.1714    5.9907 C.ar      1 UNK         0.0000
   7025 C(2)       46.7036   47.1733    4.7979 C.ar      1 UNK         0.0000
   7026 C(3)       47.7813   48.0400    4.6412 C.ar      1 UNK         0.0000
   7027 C(4)       48.1516   48.9022    5.6701 C.ar      1 UNK         0.0000
   7028 C(5)       47.4483   48.8785    6.8738 C.ar      1 UNK         0.0000
   7029 C(6)       46.3704   48.0185    7.0288 C.ar      1 UNK         0.0000
   7030 C(7)       44.0661   45.7293    5.3565 C.2       1 UNK         0.0000
   7031 C(8)       42.9427   44.9278    5.9575 C.3       1 UNK         0.0000
   7032 H(1)       46.4252   46.5105    3.9879 H         1 UNK         0.0000
   7033 H(2)       48.3281   48.0293    3.7064 H         1 UNK         0.0000
   7034 H(3)       47.7412   49.5343    7.6844 H         1 UNK         0.0000
   7035 H(4)       45.8235   48.0021    7.9634 H         1 UNK         0.0000
   7036 H(5)       49.5207   50.1063    6.2966 H         1 UNK         0.0000
   7037 H(6)       44.6150   46.2365    7.2155 H         1 UNK         0.0000
   7038 H(7)       43.1611   43.8973    5.8482 H         1 UNK         0.0000
   7039 H(8)       42.7909   45.1350    6.9849 H         1 UNK         0.0000
   7040 H(9)       42.0621   45.0922    5.3927 H         1 UNK         0.0000
   7041 O(1)       56.4424   46.5648   15.9746 O.3       1 UNK         0.0000
   7042 O(2)       51.4685   50.5093   14.6478 O.2       1 UNK         0.0000
   7043 N(1)       52.1195   49.9850   16.7595 N.am      1 UNK         0.0000
   7044 C(1)       53.2268   49.1451   16.5055 C.ar      1 UNK         0.0000
   7045 C(2)       53.9497   49.1432   15.3126 C.ar      1 UNK         0.0000
   7046 C(3)       55.0273   48.2765   15.1560 C.ar      1 UNK         0.0000
   7047 C(4)       55.3976   47.4143   16.1849 C.ar      1 UNK         0.0000
   7048 C(5)       54.6943   47.4380   17.3886 C.ar      1 UNK         0.0000
   7049 C(6)       53.6165   48.2980   17.5435 C.ar      1 UNK         0.0000
   7050 C(7)       51.3122   50.5872   15.8713 C.2       1 UNK         0.0000
   7051 C(8)       50.1887   51.3887   16.4723 C.3       1 UNK         0.0000
   7052 H(1)       53.6712   49.8060   14.5027 H         1 UNK         0.0000
   7053 H(2)       55.5741   48.2872   14.2212 H         1 UNK         0.0000
   7054 H(3)       54.9873   46.7822   18.1992 H         1 UNK         0.0000
   7055 H(4)       53.0696   48.3144   18.4782 H         1 UNK         0.0000
   7056 H(5)       56.7667   46.2102   16.8114 H         1 UNK         0.0000
   7057 H(6)       51.8610   50.0801   17.7302 H         1 UNK         0.0000
   7058 H(7)       50.4072   52.4192   16.3629 H         1 UNK         0.0000
   7059 H(8)       50.0369   51.1815   17.4996 H         1 UNK         0.0000
   7060 H(9)       49.3082   51.2243   15.9074 H         1 UNK         0.0000
   7061 O(1)       57.8878   41.9783   21.7753 O.3       1 UNK         0.0000
   7062 O(2)       62.8617   45.9228   23.1020 O.2       1 UNK         0.0000
   7063 N(1)       62.2106   45.3985   20.9903 N.am      1 UNK         0.0000
   7064 C(1)       61.1033   44.5586   21.2444 C.ar      1 UNK         0.0000
   7065 C(2)       60.3805   44.5567   22.4372 C.ar      1 UNK         0.0000
   7066 C(3)       59.3028   43.6900   22.5939 C.ar      1 UNK         0.0000
   7067 C(4)       58.9325   42.8278   21.5650 C.ar      1 UNK         0.0000
   7068 C(5)       59.6358   42.8515   20.3613 C.ar      1 UNK         0.0000
   7069 C(6)       60.7136   43.7115   20.2063 C.ar      1 UNK         0.0000
   7070 C(7)       63.0180   46.0007   21.8786 C.2       1 UNK         0.0000
   7071 C(8)       64.1414   46.8022   21.2776 C.3       1 UNK         0.0000
   7072 H(1)       60.6589   45.2195   23.2472 H         1 UNK         0.0000
   7073 H(2)       58.7560   43.7007   23.5287 H         1 UNK         0.0000
   7074 H(3)       59.3429   42.1957   19.5507 H         1 UNK         0.0000
   7075 H(4)       61.2606   43.7279   19.2717 H         1 UNK         0.0000
   7076 H(5)       57.5634   41.6237   20.9385 H         1 UNK         0.0000
   7077 H(6)       62.4691   45.4936   20.0196 H         1 UNK         0.0000
   7078 H(7)       63.9230   47.8327   21.3869 H         1 UNK         0.0000
   7079 H(8)       64.2932   46.5950   20.2502 H         1 UNK         0.0000
   7080 H(9)       65.0219   46.6378   21.8424 H         1 UNK         0.0000
   7081 O(1)       50.6417   54.3382   11.2605 O.3       1 UNK         0.0000
   7082 O(2)       55.6156   50.3937   12.5873 O.2       1 UNK         0.0000
   7083 N(1)       54.9646   50.9180   10.4756 N.am      1 UNK         0.0000
   7084 C(1)       53.8572   51.7579   10.7296 C.ar      1 UNK         0.0000
   7085 C(2)       53.1344   51.7598   11.9225 C.ar      1 UNK         0.0000
   7086 C(3)       52.0567   52.6265   12.0791 C.ar      1 UNK         0.0000
   7087 C(4)       51.6864   53.4887   11.0502 C.ar      1 UNK         0.0000
   7088 C(5)       52.3898   53.4650    9.8465 C.ar      1 UNK         0.0000
   7089 C(6)       53.4676   52.6050    9.6916 C.ar      1 UNK         0.0000
   7090 C(7)       55.7719   50.3158   11.3638 C.2       1 UNK         0.0000
   7091 C(8)       56.8954   49.5143   10.7628 C.3       1 UNK         0.0000
   7092 H(1)       53.4129   51.0970   12.7324 H         1 UNK         0.0000
   7093 H(2)       51.5100   52.6158   13.0139 H         1 UNK         0.0000
   7094 H(3)       52.0968   54.1208    9.0359 H         1 UNK         0.0000
   7095 H(4)       54.0145   52.5886    8.7569 H         1 UNK         0.0000
   7096 H(5)       50.3174   54.6928   10.4237 H         1 UNK         0.0000
   7097 H(6)       55.2231   50.8230    9.5049 H         1 UNK         0.0000
   7098 H(7)       56.6769   48.4838   10.8722 H         1 UNK         0.0000
   7099 H(8)       57.0471   49.7215    9.7355 H         1 UNK         0.0000
   7100 H(9)       57.7759   49.6787   11.3277 H         1 UNK         0.0000
   7101 O(1)       61.7430   49.7517   12.4697 O.3       1 UNK         0.0000
   7102 O(2)       56.7691   45.8072   11.1429 O.2       1 UNK         0.0000
   7103 N(1)       57.4202   46.3315   13.2546 N.am      1 UNK         0.0000
   7104 C(1)       58.5275   47.1714   13.0005 C.ar      1 UNK         0.0000
   7105 C(2)       59.2503   47.1733   11.8077 C.ar      1 UNK         0.0000
   7106 C(3)       60.3280   48.0400   11.6511 C.ar      1 UNK         0.0000
   7107 C(4)       60.6983   48.9022   12.6800 C.ar      1 UNK         0.0000
   7108 C(5)       59.9950   48.8785   13.8837 C.ar      1 UNK         0.0000
   7109 C(6)       58.9171   48.0185   14.0386 C.ar      1 UNK         0.0000
   7110 C(7)       56.6128   45.7293   12.3664 C.2       1 UNK         0.0000
   7111 C(8)       55.4894   44.9278   12.9673 C.3       1 UNK         0.0000
   7112 H(1)       58.9719   46.5105   10.9978 H         1 UNK         0.0000
   7113 H(2)       60.8748   48.0293   10.7162 H         1 UNK         0.0000
   7114 H(3)       60.2879   49.5343   14.6943 H         1 UNK         0.0000
   7115 H(4)       58.3702   48.0021   14.9733 H         1 UNK         0.0000
   7116 H(5)       62.0674   50.1063   13.3065 H         1 UNK         0.0000
   7117 H(6)       57.1617   46.2365   14.2253 H         1 UNK         0.0000
   7118 H(7)       55.7078   43.8973   12.8580 H         1 UNK         0.0000
   7119 H(8)       55.3376   45.1350   13.9947 H         1 UNK         0.0000
   7120 H(9)       54.6088   45.0922   12.4025 H         1 UNK         0.0000
   7121 O(1)       57.4151   46.5648    1.7534 O.3       1 UNK         0.0000
   7122 O(2)       52.4412   50.5093    0.4267 O.2       1 UNK         0.0000
   7123 N(1)       53.0922   49.9850    2.5384 N.am      1 UNK         0.0000
   7124 C(1)       54.1995   49.1451    2.2843 C.ar      1 UNK         0.0000
   7125 C(2)       54.9224   49.1432    1.0915 C.ar      1 UNK         0.0000
   7126 C(3)       56.0000   48.2765    0.9348 C.ar      1 UNK         0.0000
   7127 C(4)       56.3703   47.4143    1.9637 C.ar      1 UNK         0.0000
   7128 C(5)       55.6670   47.4380    3.1674 C.ar      1 UNK         0.0000
   7129 C(6)       54.5892   48.2980    3.3223 C.ar      1 UNK         0.0000
   7130 C(7)       52.2849   50.5872    1.6501 C.2       1 UNK         0.0000
   7131 C(8)       51.1614   51.3887    2.2511 C.3       1 UNK         0.0000
   7132 H(1)       54.6439   49.8060    0.2815 H         1 UNK         0.0000
   7133 H(2)       56.5468   48.2872    0.0000 H         1 UNK         0.0000
   7134 H(3)       55.9599   46.7822    3.9780 H         1 UNK         0.0000
   7135 H(4)       54.0423   48.3144    4.2570 H         1 UNK         0.0000
   7136 H(5)       57.7394   46.2102    2.5902 H         1 UNK         0.0000
   7137 H(6)       52.8337   50.0801    3.5091 H         1 UNK         0.0000
   7138 H(7)       51.3799   52.4192    2.1418 H         1 UNK         0.0000
   7139 H(8)       51.0096   51.1815    3.2785 H         1 UNK         0.0000
   7140 H(9)       50.2809   51.2243    1.6863 H         1 UNK         0.0000
   7141 O(1)       44.3684   41.9783    7.7556 O.3       1 UNK         0.0000
   7142 O(2)       49.3423   45.9228    9.0824 O.2       1 UNK         0.0000
   7143 N(1)       48.6912   45.3985    6.9707 N.am      1 UNK         0.0000
   7144 C(1)       47.5839   44.5586    7.2247 C.ar      1 UNK         0.0000
   7145 C(2)       46.8611   44.5567    8.4175 C.ar      1 UNK         0.0000
   7146 C(3)       45.7834   43.6900    8.5742 C.ar      1 UNK         0.0000
   7147 C(4)       45.4131   42.8278    7.5453 C.ar      1 UNK         0.0000
   7148 C(5)       46.1164   42.8515    6.3416 C.ar      1 UNK         0.0000
   7149 C(6)       47.1943   43.7115    6.1867 C.ar      1 UNK         0.0000
   7150 C(7)       49.4986   46.0007    7.8589 C.2       1 UNK         0.0000
   7151 C(8)       50.6220   46.8022    7.2579 C.3       1 UNK         0.0000
   7152 H(1)       47.1395   45.2195    9.2275 H         1 UNK         0.0000
   7153 H(2)       45.2366   43.7007    9.5090 H         1 UNK         0.0000
   7154 H(3)       45.8235   42.1957    5.5310 H         1 UNK         0.0000
   7155 H(4)       47.7412   43.7279    5.2520 H         1 UNK         0.0000
   7156 H(5)       44.0440   41.6237    6.9188 H         1 UNK         0.0000
   7157 H(6)       48.9497   45.4936    5.9999 H         1 UNK         0.0000
   7158 H(7)       50.4036   47.8327    7.3672 H         1 UNK         0.0000
   7159 H(8)       50.7738   46.5950    6.2305 H         1 UNK         0.0000
   7160 H(9)       51.5026   46.6378    7.8227 H         1 UNK         0.0000
   7161 O(1)       51.6144   45.1652   18.2703 O.3       1 UNK         0.0000
   7162 O(2)       56.5883   41.2207   19.5971 O.2       1 UNK         0.0000
   7163 N(1)       55.9373   41.7450   17.4854 N.am      1 UNK         0.0000
   7164 C(1)       54.8299   42.5849   17.7395 C.ar      1 UNK         0.0000
   7165 C(2)       54.1071   42.5868   18.9323 C.ar      1 UNK         0.0000
   7166 C(3)       53.0294   43.4535   19.0889 C.ar      1 UNK         0.0000
   7167 C(4)       52.6591   44.3157   18.0600 C.ar      1 UNK         0.0000
   7168 C(5)       53.3625   44.2920   16.8563 C.ar      1 UNK         0.0000
   7169 C(6)       54.4403   43.4320   16.7014 C.ar      1 UNK         0.0000
   7170 C(7)       56.7446   41.1428   18.3737 C.2       1 UNK         0.0000
   7171 C(8)       57.8681   40.3413   17.7727 C.3       1 UNK         0.0000
   7172 H(1)       54.3856   41.9240   19.7422 H         1 UNK         0.0000
   7173 H(2)       52.4827   43.4428   20.0238 H         1 UNK         0.0000
   7174 H(3)       53.0695   44.9478   16.0457 H         1 UNK         0.0000
   7175 H(4)       54.9872   43.4156   15.7668 H         1 UNK         0.0000
   7176 H(5)       51.2901   45.5198   17.4335 H         1 UNK         0.0000
   7177 H(6)       56.1958   41.6500   16.5147 H         1 UNK         0.0000
   7178 H(7)       57.6496   39.3108   17.8820 H         1 UNK         0.0000
   7179 H(8)       58.0198   40.5485   16.7453 H         1 UNK         0.0000
   7180 H(9)       58.7486   40.5057   18.3375 H         1 UNK         0.0000
   7181 O(1)       51.1417   49.7517   19.4795 O.3       1 UNK         0.0000
   7182 O(2)       46.1678   45.8072   18.1527 O.2       1 UNK         0.0000
   7183 N(1)       46.8189   46.3315   20.2644 N.am      1 UNK         0.0000
   7184 C(1)       47.9262   47.1714   20.0104 C.ar      1 UNK         0.0000
   7185 C(2)       48.6490   47.1733   18.8176 C.ar      1 UNK         0.0000
   7186 C(3)       49.7267   48.0400   18.6609 C.ar      1 UNK         0.0000
   7187 C(4)       50.0970   48.9022   19.6898 C.ar      1 UNK         0.0000
   7188 C(5)       49.3936   48.8785   20.8935 C.ar      1 UNK         0.0000
   7189 C(6)       48.3158   48.0185   21.0484 C.ar      1 UNK         0.0000
   7190 C(7)       46.0115   45.7293   19.3762 C.2       1 UNK         0.0000
   7191 C(8)       44.8881   44.9278   19.9772 C.3       1 UNK         0.0000
   7192 H(1)       48.3706   46.5105   18.0076 H         1 UNK         0.0000
   7193 H(2)       50.2734   48.0293   17.7261 H         1 UNK         0.0000
   7194 H(3)       49.6866   49.5343   21.7041 H         1 UNK         0.0000
   7195 H(4)       47.7689   48.0021   21.9831 H         1 UNK         0.0000
   7196 H(5)       51.4661   50.1063   20.3163 H         1 UNK         0.0000
   7197 H(6)       46.5604   46.2365   21.2352 H         1 UNK         0.0000
   7198 H(7)       45.1065   43.8973   19.8678 H         1 UNK         0.0000
   7199 H(8)       44.7363   45.1350   21.0046 H         1 UNK         0.0000
   7200 H(9)       44.0075   45.0922   19.4124 H         1 UNK         0.0000
   7201 O(1)       67.0437    0.6998    8.9648 O.3       1 UNK         0.0000
   7202 O(2)       62.0698    4.6443    7.6380 O.2       1 UNK         0.0000
   7203 N(1)       62.7208    4.1200    9.7497 N.am      1 UNK         0.0000
   7204 C(1)       63.8281    3.2801    9.4956 C.ar      1 UNK         0.0000
   7205 C(2)       64.5510    3.2782    8.3028 C.ar      1 UNK         0.0000
   7206 C(3)       65.6286    2.4115    8.1462 C.ar      1 UNK         0.0000
   7207 C(4)       65.9990    1.5493    9.1751 C.ar      1 UNK         0.0000
   7208 C(5)       65.2956    1.5730   10.3788 C.ar      1 UNK         0.0000
   7209 C(6)       64.2178    2.4330   10.5337 C.ar      1 UNK         0.0000
   7210 C(7)       61.9135    4.7222    8.8614 C.2       1 UNK         0.0000
   7211 C(8)       60.7900    5.5237    9.4624 C.3       1 UNK         0.0000
   7212 H(1)       64.2725    3.9410    7.4929 H         1 UNK         0.0000
   7213 H(2)       66.1754    2.4222    7.2113 H         1 UNK         0.0000
   7214 H(3)       65.5886    0.9172   11.1894 H         1 UNK         0.0000
   7215 H(4)       63.6709    2.4494   11.4683 H         1 UNK         0.0000
   7216 H(5)       67.3680    0.3452    9.8016 H         1 UNK         0.0000
   7217 H(6)       62.4623    4.2150   10.7204 H         1 UNK         0.0000
   7218 H(7)       61.0085    6.5542    9.3531 H         1 UNK         0.0000
   7219 H(8)       60.6383    5.3165   10.4898 H         1 UNK         0.0000
   7220 H(9)       59.9095    5.3593    8.8976 H         1 UNK         0.0000
   7221 O(1)       56.9151   -3.8867   14.7654 O.3       1 UNK         0.0000
   7222 O(2)       61.8890    0.0578   16.0922 O.2       1 UNK         0.0000
   7223 N(1)       61.2379   -0.4665   13.9805 N.am      1 UNK         0.0000
   7224 C(1)       60.1306   -1.3064   14.2346 C.ar      1 UNK         0.0000
   7225 C(2)       59.4078   -1.3083   15.4274 C.ar      1 UNK         0.0000
   7226 C(3)       58.3301   -2.1750   15.5840 C.ar      1 UNK         0.0000
   7227 C(4)       57.9598   -3.0372   14.5551 C.ar      1 UNK         0.0000
   7228 C(5)       58.6631   -3.0135   13.3514 C.ar      1 UNK         0.0000
   7229 C(6)       59.7410   -2.1535   13.1965 C.ar      1 UNK         0.0000
   7230 C(7)       62.0453    0.1357   14.8687 C.2       1 UNK         0.0000
   7231 C(8)       63.1687    0.9372   14.2678 C.3       1 UNK         0.0000
   7232 H(1)       59.6862   -0.6455   16.2373 H         1 UNK         0.0000
   7233 H(2)       57.7833   -2.1643   16.5188 H         1 UNK         0.0000
   7234 H(3)       58.3702   -3.6693   12.5408 H         1 UNK         0.0000
   7235 H(4)       60.2879   -2.1371   12.2618 H         1 UNK         0.0000
   7236 H(5)       56.5907   -4.2413   13.9286 H         1 UNK         0.0000
   7237 H(6)       61.4964   -0.3715   13.0098 H         1 UNK         0.0000
   7238 H(7)       62.9503    1.9677   14.3771 H         1 UNK         0.0000
   7239 H(8)       63.3205    0.7300   13.2404 H         1 UNK         0.0000
   7240 H(9)       64.0492    0.7728   14.8326 H         1 UNK         0.0000
   7241 O(1)       61.2430    8.4732    4.2507 O.3       1 UNK         0.0000
   7242 O(2)       66.2169    4.5287    5.5774 O.2       1 UNK         0.0000
   7243 N(1)       65.5659    5.0530    3.4657 N.am      1 UNK         0.0000
   7244 C(1)       64.4586    5.8929    3.7198 C.ar      1 UNK         0.0000
   7245 C(2)       63.7357    5.8948    4.9126 C.ar      1 UNK         0.0000
   7246 C(3)       62.6581    6.7615    5.0693 C.ar      1 UNK         0.0000
   7247 C(4)       62.2877    7.6237    4.0404 C.ar      1 UNK         0.0000
   7248 C(5)       62.9911    7.6000    2.8367 C.ar      1 UNK         0.0000
   7249 C(6)       64.0689    6.7400    2.6817 C.ar      1 UNK         0.0000
   7250 C(7)       66.3732    4.4508    4.3540 C.2       1 UNK         0.0000
   7251 C(8)       67.4967    3.6493    3.7530 C.3       1 UNK         0.0000
   7252 H(1)       64.0142    5.2320    5.7226 H         1 UNK         0.0000
   7253 H(2)       62.1113    6.7508    6.0041 H         1 UNK         0.0000
   7254 H(3)       62.6981    8.2558    2.0261 H         1 UNK         0.0000
   7255 H(4)       64.6158    6.7236    1.7471 H         1 UNK         0.0000
   7256 H(5)       60.9187    8.8278    3.4139 H         1 UNK         0.0000
   7257 H(6)       65.8244    4.9580    2.4950 H         1 UNK         0.0000
   7258 H(7)       67.2782    2.6188    3.8623 H         1 UNK         0.0000
   7259 H(8)       67.6484    3.8565    2.7256 H         1 UNK         0.0000
   7260 H(9)       68.3772    3.8137    4.3178 H         1 UNK         0.0000
   7261 O(1)       60.7703    3.8867    5.4598 O.3       1 UNK         0.0000
   7262 O(2)       55.7964   -0.0578    4.1331 O.2       1 UNK         0.0000
   7263 N(1)       56.4475    0.4665    6.2448 N.am      1 UNK         0.0000
   7264 C(1)       57.5548    1.3064    5.9907 C.ar      1 UNK         0.0000
   7265 C(2)       58.2776    1.3083    4.7979 C.ar      1 UNK         0.0000
   7266 C(3)       59.3553    2.1750    4.6412 C.ar      1 UNK         0.0000
   7267 C(4)       59.7256    3.0372    5.6701 C.ar      1 UNK         0.0000
   7268 C(5)       59.0223    3.0135    6.8738 C.ar      1 UNK         0.0000
   7269 C(6)       57.9444    2.1535    7.0288 C.ar      1 UNK         0.0000
   7270 C(7)       55.6401   -0.1357    5.3565 C.2       1 UNK         0.0000
   7271 C(8)       54.5167   -0.9372    5.9575 C.3       1 UNK         0.0000
   7272 H(1)       57.9992    0.6455    3.9879 H         1 UNK         0.0000
   7273 H(2)       59.9021    2.1643    3.7064 H         1 UNK         0.0000
   7274 H(3)       59.3152    3.6693    7.6844 H         1 UNK         0.0000
   7275 H(4)       57.3975    2.1371    7.9634 H         1 UNK         0.0000
   7276 H(5)       61.0947    4.2413    6.2966 H         1 UNK         0.0000
   7277 H(6)       56.1890    0.3715    7.2155 H         1 UNK         0.0000
   7278 H(7)       54.7351   -1.9677    5.8482 H         1 UNK         0.0000
   7279 H(8)       54.3649   -0.7300    6.9849 H         1 UNK         0.0000
   7280 H(9)       53.6361   -0.7728    5.3927 H         1 UNK         0.0000
   7281 O(1)       68.0164    0.6998   15.9746 O.3       1 UNK         0.0000
   7282 O(2)       63.0425    4.6443   14.6478 O.2       1 UNK         0.0000
   7283 N(1)       63.6935    4.1200   16.7595 N.am      1 UNK         0.0000
   7284 C(1)       64.8008    3.2801   16.5055 C.ar      1 UNK         0.0000
   7285 C(2)       65.5237    3.2782   15.3126 C.ar      1 UNK         0.0000
   7286 C(3)       66.6013    2.4115   15.1560 C.ar      1 UNK         0.0000
   7287 C(4)       66.9716    1.5493   16.1849 C.ar      1 UNK         0.0000
   7288 C(5)       66.2683    1.5730   17.3886 C.ar      1 UNK         0.0000
   7289 C(6)       65.1905    2.4330   17.5435 C.ar      1 UNK         0.0000
   7290 C(7)       62.8862    4.7222   15.8713 C.2       1 UNK         0.0000
   7291 C(8)       61.7627    5.5237   16.4723 C.3       1 UNK         0.0000
   7292 H(1)       65.2452    3.9410   14.5027 H         1 UNK         0.0000
   7293 H(2)       67.1481    2.4222   14.2212 H         1 UNK         0.0000
   7294 H(3)       66.5613    0.9172   18.1992 H         1 UNK         0.0000
   7295 H(4)       64.6436    2.4494   18.4782 H         1 UNK         0.0000
   7296 H(5)       68.3407    0.3452   16.8114 H         1 UNK         0.0000
   7297 H(6)       63.4350    4.2150   17.7302 H         1 UNK         0.0000
   7298 H(7)       61.9812    6.5542   16.3629 H         1 UNK         0.0000
   7299 H(8)       61.6109    5.3165   17.4996 H         1 UNK         0.0000
   7300 H(9)       60.8822    5.3593   15.9074 H         1 UNK         0.0000
   7301 O(1)       69.4618   -3.8867   21.7753 O.3       1 UNK         0.0000
   7302 O(2)       74.4357    0.0578   23.1020 O.2       1 UNK         0.0000
   7303 N(1)       73.7846   -0.4665   20.9903 N.am      1 UNK         0.0000
   7304 C(1)       72.6773   -1.3064   21.2444 C.ar      1 UNK         0.0000
   7305 C(2)       71.9545   -1.3083   22.4372 C.ar      1 UNK         0.0000
   7306 C(3)       70.8768   -2.1750   22.5939 C.ar      1 UNK         0.0000
   7307 C(4)       70.5065   -3.0372   21.5650 C.ar      1 UNK         0.0000
   7308 C(5)       71.2098   -3.0135   20.3613 C.ar      1 UNK         0.0000
   7309 C(6)       72.2876   -2.1535   20.2063 C.ar      1 UNK         0.0000
   7310 C(7)       74.5920    0.1357   21.8786 C.2       1 UNK         0.0000
   7311 C(8)       75.7154    0.9372   21.2776 C.3       1 UNK         0.0000
   7312 H(1)       72.2329   -0.6455   23.2472 H         1 UNK         0.0000
   7313 H(2)       70.3300   -2.1643   23.5287 H         1 UNK         0.0000
   7314 H(3)       70.9169   -3.6693   19.5507 H         1 UNK         0.0000
   7315 H(4)       72.8346   -2.1371   19.2717 H         1 UNK         0.0000
   7316 H(5)       69.1374   -4.2413   20.9385 H         1 UNK         0.0000
   7317 H(6)       74.0431   -0.3715   20.0196 H         1 UNK         0.0000
   7318 H(7)       75.4970    1.9677   21.3869 H         1 UNK         0.0000
   7319 H(8)       75.8672    0.7300   20.2502 H         1 UNK         0.0000
   7320 H(9)       76.5959    0.7728   21.8424 H         1 UNK         0.0000
   7321 O(1)       62.2157    8.4732   11.2605 O.3       1 UNK         0.0000
   7322 O(2)       67.1896    4.5287   12.5873 O.2       1 UNK         0.0000
   7323 N(1)       66.5386    5.0530   10.4756 N.am      1 UNK         0.0000
   7324 C(1)       65.4312    5.8929   10.7296 C.ar      1 UNK         0.0000
   7325 C(2)       64.7084    5.8948   11.9225 C.ar      1 UNK         0.0000
   7326 C(3)       63.6307    6.7615   12.0791 C.ar      1 UNK         0.0000
   7327 C(4)       63.2604    7.6237   11.0502 C.ar      1 UNK         0.0000
   7328 C(5)       63.9638    7.6000    9.8465 C.ar      1 UNK         0.0000
   7329 C(6)       65.0416    6.7400    9.6916 C.ar      1 UNK         0.0000
   7330 C(7)       67.3459    4.4508   11.3638 C.2       1 UNK         0.0000
   7331 C(8)       68.4694    3.6493   10.7628 C.3       1 UNK         0.0000
   7332 H(1)       64.9869    5.2320   12.7324 H         1 UNK         0.0000
   7333 H(2)       63.0840    6.7508   13.0139 H         1 UNK         0.0000
   7334 H(3)       63.6708    8.2558    9.0359 H         1 UNK         0.0000
   7335 H(4)       65.5885    6.7236    8.7569 H         1 UNK         0.0000
   7336 H(5)       61.8914    8.8278   10.4237 H         1 UNK         0.0000
   7337 H(6)       66.7971    4.9580    9.5049 H         1 UNK         0.0000
   7338 H(7)       68.2509    2.6188   10.8722 H         1 UNK         0.0000
   7339 H(8)       68.6211    3.8565    9.7355 H         1 UNK         0.0000
   7340 H(9)       69.3499    3.8137   11.3277 H         1 UNK         0.0000
   7341 O(1)       73.3170    3.8867   12.4697 O.3       1 UNK         0.0000
   7342 O(2)       68.3431   -0.0578   11.1429 O.2       1 UNK         0.0000
   7343 N(1)       68.9942    0.4665   13.2546 N.am      1 UNK         0.0000
   7344 C(1)       70.1015    1.3064   13.0005 C.ar      1 UNK         0.0000
   7345 C(2)       70.8243    1.3083   11.8077 C.ar      1 UNK         0.0000
   7346 C(3)       71.9020    2.1750   11.6511 C.ar      1 UNK         0.0000
   7347 C(4)       72.2723    3.0372   12.6800 C.ar      1 UNK         0.0000
   7348 C(5)       71.5690    3.0135   13.8837 C.ar      1 UNK         0.0000
   7349 C(6)       70.4911    2.1535   14.0386 C.ar      1 UNK         0.0000
   7350 C(7)       68.1868   -0.1357   12.3664 C.2       1 UNK         0.0000
   7351 C(8)       67.0634   -0.9372   12.9673 C.3       1 UNK         0.0000
   7352 H(1)       70.5459    0.6455   10.9978 H         1 UNK         0.0000
   7353 H(2)       72.4488    2.1643   10.7162 H         1 UNK         0.0000
   7354 H(3)       71.8619    3.6693   14.6943 H         1 UNK         0.0000
   7355 H(4)       69.9442    2.1371   14.9733 H         1 UNK         0.0000
   7356 H(5)       73.6414    4.2413   13.3065 H         1 UNK         0.0000
   7357 H(6)       68.7357    0.3715   14.2253 H         1 UNK         0.0000
   7358 H(7)       67.2818   -1.9677   12.8580 H         1 UNK         0.0000
   7359 H(8)       66.9116   -0.7300   13.9947 H         1 UNK         0.0000
   7360 H(9)       66.1828   -0.7728   12.4025 H         1 UNK         0.0000
   7361 O(1)       68.9891    0.6998    1.7534 O.3       1 UNK         0.0000
   7362 O(2)       64.0152    4.6443    0.4267 O.2       1 UNK         0.0000
   7363 N(1)       64.6662    4.1200    2.5384 N.am      1 UNK         0.0000
   7364 C(1)       65.7735    3.2801    2.2843 C.ar      1 UNK         0.0000
   7365 C(2)       66.4964    3.2782    1.0915 C.ar      1 UNK         0.0000
   7366 C(3)       67.5740    2.4115    0.9348 C.ar      1 UNK         0.0000
   7367 C(4)       67.9443    1.5493    1.9637 C.ar      1 UNK         0.0000
   7368 C(5)       67.2410    1.5730    3.1674 C.ar      1 UNK         0.0000
   7369 C(6)       66.1632    2.4330    3.3223 C.ar      1 UNK         0.0000
   7370 C(7)       63.8589    4.7222    1.6501 C.2       1 UNK         0.0000
   7371 C(8)       62.7354    5.5237    2.2511 C.3       1 UNK         0.0000
   7372 H(1)       66.2179    3.9410    0.2815 H         1 UNK         0.0000
   7373 H(2)       68.1208    2.4222    0.0000 H         1 UNK         0.0000
   7374 H(3)       67.5339    0.9172    3.9780 H         1 UNK         0.0000
   7375 H(4)       65.6163    2.4494    4.2570 H         1 UNK         0.0000
   7376 H(5)       69.3134    0.3452    2.5902 H         1 UNK         0.0000
   7377 H(6)       64.4077    4.2150    3.5091 H         1 UNK         0.0000
   7378 H(7)       62.9539    6.5542    2.1418 H         1 UNK         0.0000
   7379 H(8)       62.5836    5.3165    3.2785 H         1 UNK         0.0000
   7380 H(9)       61.8549    5.3593    1.6863 H         1 UNK         0.0000
   7381 O(1)       55.9424   -3.8867    7.7556 O.3       1 UNK         0.0000
   7382 O(2)       60.9163    0.0578    9.0824 O.2       1 UNK         0.0000
   7383 N(1)       60.2652   -0.4665    6.9707 N.am      1 UNK         0.0000
   7384 C(1)       59.1579   -1.3064    7.2247 C.ar      1 UNK         0.0000
   7385 C(2)       58.4351   -1.3083    8.4175 C.ar      1 UNK         0.0000
   7386 C(3)       57.3574   -2.1750    8.5742 C.ar      1 UNK         0.0000
   7387 C(4)       56.9871   -3.0372    7.5453 C.ar      1 UNK         0.0000
   7388 C(5)       57.6904   -3.0135    6.3416 C.ar      1 UNK         0.0000
   7389 C(6)       58.7683   -2.1535    6.1867 C.ar      1 UNK         0.0000
   7390 C(7)       61.0726    0.1357    7.8589 C.2       1 UNK         0.0000
   7391 C(8)       62.1960    0.9372    7.2579 C.3       1 UNK         0.0000
   7392 H(1)       58.7135   -0.6455    9.2275 H         1 UNK         0.0000
   7393 H(2)       56.8106   -2.1643    9.5090 H         1 UNK         0.0000
   7394 H(3)       57.3975   -3.6693    5.5310 H         1 UNK         0.0000
   7395 H(4)       59.3152   -2.1371    5.2520 H         1 UNK         0.0000
   7396 H(5)       55.6180   -4.2413    6.9188 H         1 UNK         0.0000
   7397 H(6)       60.5237   -0.3715    5.9999 H         1 UNK         0.0000
   7398 H(7)       61.9776    1.9677    7.3672 H         1 UNK         0.0000
   7399 H(8)       62.3478    0.7300    6.2305 H         1 UNK         0.0000
   7400 H(9)       63.0766    0.7728    7.8227 H         1 UNK         0.0000
   7401 O(1)       63.1884   -0.6998   18.2703 O.3       1 UNK         0.0000
   7402 O(2)       68.1623   -4.6443   19.5971 O.2       1 UNK         0.0000
   7403 N(1)       67.5113   -4.1200   17.4854 N.am      1 UNK         0.0000
   7404 C(1)       66.4039   -3.2801   17.7395 C.ar      1 UNK         0.0000
   7405 C(2)       65.6811   -3.2782   18.9323 C.ar      1 UNK         0.0000
   7406 C(3)       64.6034   -2.4115   19.0889 C.ar      1 UNK         0.0000
   7407 C(4)       64.2331   -1.5493   18.0600 C.ar      1 UNK         0.0000
   7408 C(5)       64.9365   -1.5730   16.8563 C.ar      1 UNK         0.0000
   7409 C(6)       66.0143   -2.4330   16.7014 C.ar      1 UNK         0.0000
   7410 C(7)       68.3186   -4.7222   18.3737 C.2       1 UNK         0.0000
   7411 C(8)       69.4421   -5.5237   17.7727 C.3       1 UNK         0.0000
   7412 H(1)       65.9596   -3.9410   19.7422 H         1 UNK         0.0000
   7413 H(2)       64.0567   -2.4222   20.0238 H         1 UNK         0.0000
   7414 H(3)       64.6435   -0.9172   16.0457 H         1 UNK         0.0000
   7415 H(4)       66.5612   -2.4494   15.7668 H         1 UNK         0.0000
   7416 H(5)       62.8641   -0.3452   17.4335 H         1 UNK         0.0000
   7417 H(6)       67.7698   -4.2150   16.5147 H         1 UNK         0.0000
   7418 H(7)       69.2236   -6.5542   17.8820 H         1 UNK         0.0000
   7419 H(8)       69.5938   -5.3165   16.7453 H         1 UNK         0.0000
   7420 H(9)       70.3226   -5.3593   18.3375 H         1 UNK         0.0000
   7421 O(1)       62.7157    3.8867   19.4795 O.3       1 UNK         0.0000
   7422 O(2)       57.7418   -0.0578   18.1527 O.2       1 UNK         0.0000
   7423 N(1)       58.3929    0.4665   20.2644 N.am      1 UNK         0.0000
   7424 C(1)       59.5002    1.3064   20.0104 C.ar      1 UNK         0.0000
   7425 C(2)       60.2230    1.3083   18.8176 C.ar      1 UNK         0.0000
   7426 C(3)       61.3007    2.1750   18.6609 C.ar      1 UNK         0.0000
   7427 C(4)       61.6710    3.0372   19.6898 C.ar      1 UNK         0.0000
   7428 C(5)       60.9676    3.0135   20.8935 C.ar      1 UNK         0.0000
   7429 C(6)       59.8898    2.1535   21.0484 C.ar      1 UNK         0.0000
   7430 C(7)       57.5855   -0.1357   19.3762 C.2       1 UNK         0.0000
   7431 C(8)       56.4621   -0.9372   19.9772 C.3       1 UNK         0.0000
   7432 H(1)       59.9446    0.6455   18.0076 H         1 UNK         0.0000
   7433 H(2)       61.8474    2.1643   17.7261 H         1 UNK         0.0000
   7434 H(3)       61.2606    3.6693   21.7041 H         1 UNK         0.0000
   7435 H(4)       59.3429    2.1371   21.9831 H         1 UNK         0.0000
   7436 H(5)       63.0401    4.2413   20.3163 H         1 UNK         0.0000
   7437 H(6)       58.1344    0.3715   21.2352 H         1 UNK         0.0000
   7438 H(7)       56.6805   -1.9677   19.8678 H         1 UNK         0.0000
   7439 H(8)       56.3103   -0.7300   21.0046 H         1 UNK         0.0000
   7440 H(9)       55.5815   -0.7728   19.4124 H         1 UNK         0.0000
   7441 O(1)       67.0437    9.8728    8.9648 O.3       1 UNK         0.0000
   7442 O(2)       62.0698   13.8173    7.6380 O.2       1 UNK         0.0000
   7443 N(1)       62.7208   13.2930    9.7497 N.am      1 UNK         0.0000
   7444 C(1)       63.8281   12.4531    9.4956 C.ar      1 UNK         0.0000
   7445 C(2)       64.5510   12.4512    8.3028 C.ar      1 UNK         0.0000
   7446 C(3)       65.6286   11.5845    8.1462 C.ar      1 UNK         0.0000
   7447 C(4)       65.9990   10.7223    9.1751 C.ar      1 UNK         0.0000
   7448 C(5)       65.2956   10.7460   10.3788 C.ar      1 UNK         0.0000
   7449 C(6)       64.2178   11.6060   10.5337 C.ar      1 UNK         0.0000
   7450 C(7)       61.9135   13.8952    8.8614 C.2       1 UNK         0.0000
   7451 C(8)       60.7900   14.6967    9.4624 C.3       1 UNK         0.0000
   7452 H(1)       64.2725   13.1140    7.4929 H         1 UNK         0.0000
   7453 H(2)       66.1754   11.5952    7.2113 H         1 UNK         0.0000
   7454 H(3)       65.5886   10.0902   11.1894 H         1 UNK         0.0000
   7455 H(4)       63.6709   11.6224   11.4683 H         1 UNK         0.0000
   7456 H(5)       67.3680    9.5182    9.8016 H         1 UNK         0.0000
   7457 H(6)       62.4623   13.3880   10.7204 H         1 UNK         0.0000
   7458 H(7)       61.0085   15.7272    9.3531 H         1 UNK         0.0000
   7459 H(8)       60.6383   14.4895   10.4898 H         1 UNK         0.0000
   7460 H(9)       59.9095   14.5323    8.8976 H         1 UNK         0.0000
   7461 O(1)       56.9151    5.2863   14.7654 O.3       1 UNK         0.0000
   7462 O(2)       61.8890    9.2308   16.0922 O.2       1 UNK         0.0000
   7463 N(1)       61.2379    8.7065   13.9805 N.am      1 UNK         0.0000
   7464 C(1)       60.1306    7.8666   14.2346 C.ar      1 UNK         0.0000
   7465 C(2)       59.4078    7.8647   15.4274 C.ar      1 UNK         0.0000
   7466 C(3)       58.3301    6.9980   15.5840 C.ar      1 UNK         0.0000
   7467 C(4)       57.9598    6.1358   14.5551 C.ar      1 UNK         0.0000
   7468 C(5)       58.6631    6.1595   13.3514 C.ar      1 UNK         0.0000
   7469 C(6)       59.7410    7.0195   13.1965 C.ar      1 UNK         0.0000
   7470 C(7)       62.0453    9.3087   14.8687 C.2       1 UNK         0.0000
   7471 C(8)       63.1687   10.1102   14.2678 C.3       1 UNK         0.0000
   7472 H(1)       59.6862    8.5275   16.2373 H         1 UNK         0.0000
   7473 H(2)       57.7833    7.0087   16.5188 H         1 UNK         0.0000
   7474 H(3)       58.3702    5.5037   12.5408 H         1 UNK         0.0000
   7475 H(4)       60.2879    7.0359   12.2618 H         1 UNK         0.0000
   7476 H(5)       56.5907    4.9317   13.9286 H         1 UNK         0.0000
   7477 H(6)       61.4964    8.8015   13.0098 H         1 UNK         0.0000
   7478 H(7)       62.9503   11.1407   14.3771 H         1 UNK         0.0000
   7479 H(8)       63.3205    9.9030   13.2404 H         1 UNK         0.0000
   7480 H(9)       64.0492    9.9458   14.8326 H         1 UNK         0.0000
   7481 O(1)       61.2430   17.6462    4.2507 O.3       1 UNK         0.0000
   7482 O(2)       66.2169   13.7017    5.5774 O.2       1 UNK         0.0000
   7483 N(1)       65.5659   14.2260    3.4657 N.am      1 UNK         0.0000
   7484 C(1)       64.4586   15.0659    3.7198 C.ar      1 UNK         0.0000
   7485 C(2)       63.7357   15.0678    4.9126 C.ar      1 UNK         0.0000
   7486 C(3)       62.6581   15.9345    5.0693 C.ar      1 UNK         0.0000
   7487 C(4)       62.2877   16.7967    4.0404 C.ar      1 UNK         0.0000
   7488 C(5)       62.9911   16.7730    2.8367 C.ar      1 UNK         0.0000
   7489 C(6)       64.0689   15.9130    2.6817 C.ar      1 UNK         0.0000
   7490 C(7)       66.3732   13.6238    4.3540 C.2       1 UNK         0.0000
   7491 C(8)       67.4967   12.8223    3.7530 C.3       1 UNK         0.0000
   7492 H(1)       64.0142   14.4050    5.7226 H         1 UNK         0.0000
   7493 H(2)       62.1113   15.9238    6.0041 H         1 UNK         0.0000
   7494 H(3)       62.6981   17.4288    2.0261 H         1 UNK         0.0000
   7495 H(4)       64.6158   15.8966    1.7471 H         1 UNK         0.0000
   7496 H(5)       60.9187   18.0008    3.4139 H         1 UNK         0.0000
   7497 H(6)       65.8244   14.1310    2.4950 H         1 UNK         0.0000
   7498 H(7)       67.2782   11.7918    3.8623 H         1 UNK         0.0000
   7499 H(8)       67.6484   13.0295    2.7256 H         1 UNK         0.0000
   7500 H(9)       68.3772   12.9867    4.3178 H         1 UNK         0.0000
   7501 O(1)       60.7703   13.0597    5.4598 O.3       1 UNK         0.0000
   7502 O(2)       55.7964    9.1152    4.1331 O.2       1 UNK         0.0000
   7503 N(1)       56.4475    9.6395    6.2448 N.am      1 UNK         0.0000
   7504 C(1)       57.5548   10.4794    5.9907 C.ar      1 UNK         0.0000
   7505 C(2)       58.2776   10.4813    4.7979 C.ar      1 UNK         0.0000
   7506 C(3)       59.3553   11.3480    4.6412 C.ar      1 UNK         0.0000
   7507 C(4)       59.7256   12.2102    5.6701 C.ar      1 UNK         0.0000
   7508 C(5)       59.0223   12.1865    6.8738 C.ar      1 UNK         0.0000
   7509 C(6)       57.9444   11.3265    7.0288 C.ar      1 UNK         0.0000
   7510 C(7)       55.6401    9.0373    5.3565 C.2       1 UNK         0.0000
   7511 C(8)       54.5167    8.2358    5.9575 C.3       1 UNK         0.0000
   7512 H(1)       57.9992    9.8185    3.9879 H         1 UNK         0.0000
   7513 H(2)       59.9021   11.3373    3.7064 H         1 UNK         0.0000
   7514 H(3)       59.3152   12.8423    7.6844 H         1 UNK         0.0000
   7515 H(4)       57.3975   11.3101    7.9634 H         1 UNK         0.0000
   7516 H(5)       61.0947   13.4143    6.2966 H         1 UNK         0.0000
   7517 H(6)       56.1890    9.5445    7.2155 H         1 UNK         0.0000
   7518 H(7)       54.7351    7.2053    5.8482 H         1 UNK         0.0000
   7519 H(8)       54.3649    8.4430    6.9849 H         1 UNK         0.0000
   7520 H(9)       53.6361    8.4002    5.3927 H         1 UNK         0.0000
   7521 O(1)       68.0164    9.8728   15.9746 O.3       1 UNK         0.0000
   7522 O(2)       63.0425   13.8173   14.6478 O.2       1 UNK         0.0000
   7523 N(1)       63.6935   13.2930   16.7595 N.am      1 UNK         0.0000
   7524 C(1)       64.8008   12.4531   16.5055 C.ar      1 UNK         0.0000
   7525 C(2)       65.5237   12.4512   15.3126 C.ar      1 UNK         0.0000
   7526 C(3)       66.6013   11.5845   15.1560 C.ar      1 UNK         0.0000
   7527 C(4)       66.9716   10.7223   16.1849 C.ar      1 UNK         0.0000
   7528 C(5)       66.2683   10.7460   17.3886 C.ar      1 UNK         0.0000
   7529 C(6)       65.1905   11.6060   17.5435 C.ar      1 UNK         0.0000
   7530 C(7)       62.8862   13.8952   15.8713 C.2       1 UNK         0.0000
   7531 C(8)       61.7627   14.6967   16.4723 C.3       1 UNK         0.0000
   7532 H(1)       65.2452   13.1140   14.5027 H         1 UNK         0.0000
   7533 H(2)       67.1481   11.5952   14.2212 H         1 UNK         0.0000
   7534 H(3)       66.5613   10.0902   18.1992 H         1 UNK         0.0000
   7535 H(4)       64.6436   11.6224   18.4782 H         1 UNK         0.0000
   7536 H(5)       68.3407    9.5182   16.8114 H         1 UNK         0.0000
   7537 H(6)       63.4350   13.3880   17.7302 H         1 UNK         0.0000
   7538 H(7)       61.9812   15.7272   16.3629 H         1 UNK         0.0000
   7539 H(8)       61.6109   14.4895   17.4996 H         1 UNK         0.0000
   7540 H(9)       60.8822   14.5323   15.9074 H         1 UNK         0.0000
   7541 O(1)       69.4618    5.2863   21.7753 O.3       1 UNK         0.0000
   7542 O(2)       74.4357    9.2308   23.1020 O.2       1 UNK         0.0000
   7543 N(1)       73.7846    8.7065   20.9903 N.am      1 UNK         0.0000
   7544 C(1)       72.6773    7.8666   21.2444 C.ar      1 UNK         0.0000
   7545 C(2)       71.9545    7.8647   22.4372 C.ar      1 UNK         0.0000
   7546 C(3)       70.8768    6.9980   22.5939 C.ar      1 UNK         0.0000
   7547 C(4)       70.5065    6.1358   21.5650 C.ar      1 UNK         0.0000
   7548 C(5)       71.2098    6.1595   20.3613 C.ar      1 UNK         0.0000
   7549 C(6)       72.2876    7.0195   20.2063 C.ar      1 UNK         0.0000
   7550 C(7)       74.5920    9.3087   21.8786 C.2       1 UNK         0.0000
   7551 C(8)       75.7154   10.1102   21.2776 C.3       1 UNK         0.0000
   7552 H(1)       72.2329    8.5275   23.2472 H         1 UNK         0.0000
   7553 H(2)       70.3300    7.0087   23.5287 H         1 UNK         0.0000
   7554 H(3)       70.9169    5.5037   19.5507 H         1 UNK         0.0000
   7555 H(4)       72.8346    7.0359   19.2717 H         1 UNK         0.0000
   7556 H(5)       69.1374    4.9317   20.9385 H         1 UNK         0.0000
   7557 H(6)       74.0431    8.8015   20.0196 H         1 UNK         0.0000
   7558 H(7)       75.4970   11.1407   21.3869 H         1 UNK         0.0000
   7559 H(8)       75.8672    9.9030   20.2502 H         1 UNK         0.0000
   7560 H(9)       76.5959    9.9458   21.8424 H         1 UNK         0.0000
   7561 O(1)       62.2157   17.6462   11.2605 O.3       1 UNK         0.0000
   7562 O(2)       67.1896   13.7017   12.5873 O.2       1 UNK         0.0000
   7563 N(1)       66.5386   14.2260   10.4756 N.am      1 UNK         0.0000
   7564 C(1)       65.4312   15.0659   10.7296 C.ar      1 UNK         0.0000
   7565 C(2)       64.7084   15.0678   11.9225 C.ar      1 UNK         0.0000
   7566 C(3)       63.6307   15.9345   12.0791 C.ar      1 UNK         0.0000
   7567 C(4)       63.2604   16.7967   11.0502 C.ar      1 UNK         0.0000
   7568 C(5)       63.9638   16.7730    9.8465 C.ar      1 UNK         0.0000
   7569 C(6)       65.0416   15.9130    9.6916 C.ar      1 UNK         0.0000
   7570 C(7)       67.3459   13.6238   11.3638 C.2       1 UNK         0.0000
   7571 C(8)       68.4694   12.8223   10.7628 C.3       1 UNK         0.0000
   7572 H(1)       64.9869   14.4050   12.7324 H         1 UNK         0.0000
   7573 H(2)       63.0840   15.9238   13.0139 H         1 UNK         0.0000
   7574 H(3)       63.6708   17.4288    9.0359 H         1 UNK         0.0000
   7575 H(4)       65.5885   15.8966    8.7569 H         1 UNK         0.0000
   7576 H(5)       61.8914   18.0008   10.4237 H         1 UNK         0.0000
   7577 H(6)       66.7971   14.1310    9.5049 H         1 UNK         0.0000
   7578 H(7)       68.2509   11.7918   10.8722 H         1 UNK         0.0000
   7579 H(8)       68.6211   13.0295    9.7355 H         1 UNK         0.0000
   7580 H(9)       69.3499   12.9867   11.3277 H         1 UNK         0.0000
   7581 O(1)       73.3170   13.0597   12.4697 O.3       1 UNK         0.0000
   7582 O(2)       68.3431    9.1152   11.1429 O.2       1 UNK         0.0000
   7583 N(1)       68.9942    9.6395   13.2546 N.am      1 UNK         0.0000
   7584 C(1)       70.1015   10.4794   13.0005 C.ar      1 UNK         0.0000
   7585 C(2)       70.8243   10.4813   11.8077 C.ar      1 UNK         0.0000
   7586 C(3)       71.9020   11.3480   11.6511 C.ar      1 UNK         0.0000
   7587 C(4)       72.2723   12.2102   12.6800 C.ar      1 UNK         0.0000
   7588 C(5)       71.5690   12.1865   13.8837 C.ar      1 UNK         0.0000
   7589 C(6)       70.4911   11.3265   14.0386 C.ar      1 UNK         0.0000
   7590 C(7)       68.1868    9.0373   12.3664 C.2       1 UNK         0.0000
   7591 C(8)       67.0634    8.2358   12.9673 C.3       1 UNK         0.0000
   7592 H(1)       70.5459    9.8185   10.9978 H         1 UNK         0.0000
   7593 H(2)       72.4488   11.3373   10.7162 H         1 UNK         0.0000
   7594 H(3)       71.8619   12.8423   14.6943 H         1 UNK         0.0000
   7595 H(4)       69.9442   11.3101   14.9733 H         1 UNK         0.0000
   7596 H(5)       73.6414   13.4143   13.3065 H         1 UNK         0.0000
   7597 H(6)       68.7357    9.5445   14.2253 H         1 UNK         0.0000
   7598 H(7)       67.2818    7.2053   12.8580 H         1 UNK         0.0000
   7599 H(8)       66.9116    8.4430   13.9947 H         1 UNK         0.0000
   7600 H(9)       66.1828    8.4002   12.4025 H         1 UNK         0.0000
   7601 O(1)       68.9891    9.8728    1.7534 O.3       1 UNK         0.0000
   7602 O(2)       64.0152   13.8173    0.4267 O.2       1 UNK         0.0000
   7603 N(1)       64.6662   13.2930    2.5384 N.am      1 UNK         0.0000
   7604 C(1)       65.7735   12.4531    2.2843 C.ar      1 UNK         0.0000
   7605 C(2)       66.4964   12.4512    1.0915 C.ar      1 UNK         0.0000
   7606 C(3)       67.5740   11.5845    0.9348 C.ar      1 UNK         0.0000
   7607 C(4)       67.9443   10.7223    1.9637 C.ar      1 UNK         0.0000
   7608 C(5)       67.2410   10.7460    3.1674 C.ar      1 UNK         0.0000
   7609 C(6)       66.1632   11.6060    3.3223 C.ar      1 UNK         0.0000
   7610 C(7)       63.8589   13.8952    1.6501 C.2       1 UNK         0.0000
   7611 C(8)       62.7354   14.6967    2.2511 C.3       1 UNK         0.0000
   7612 H(1)       66.2179   13.1140    0.2815 H         1 UNK         0.0000
   7613 H(2)       68.1208   11.5952    0.0000 H         1 UNK         0.0000
   7614 H(3)       67.5339   10.0902    3.9780 H         1 UNK         0.0000
   7615 H(4)       65.6163   11.6224    4.2570 H         1 UNK         0.0000
   7616 H(5)       69.3134    9.5182    2.5902 H         1 UNK         0.0000
   7617 H(6)       64.4077   13.3880    3.5091 H         1 UNK         0.0000
   7618 H(7)       62.9539   15.7272    2.1418 H         1 UNK         0.0000
   7619 H(8)       62.5836   14.4895    3.2785 H         1 UNK         0.0000
   7620 H(9)       61.8549   14.5323    1.6863 H         1 UNK         0.0000
   7621 O(1)       55.9424    5.2863    7.7556 O.3       1 UNK         0.0000
   7622 O(2)       60.9163    9.2308    9.0824 O.2       1 UNK         0.0000
   7623 N(1)       60.2652    8.7065    6.9707 N.am      1 UNK         0.0000
   7624 C(1)       59.1579    7.8666    7.2247 C.ar      1 UNK         0.0000
   7625 C(2)       58.4351    7.8647    8.4175 C.ar      1 UNK         0.0000
   7626 C(3)       57.3574    6.9980    8.5742 C.ar      1 UNK         0.0000
   7627 C(4)       56.9871    6.1358    7.5453 C.ar      1 UNK         0.0000
   7628 C(5)       57.6904    6.1595    6.3416 C.ar      1 UNK         0.0000
   7629 C(6)       58.7683    7.0195    6.1867 C.ar      1 UNK         0.0000
   7630 C(7)       61.0726    9.3087    7.8589 C.2       1 UNK         0.0000
   7631 C(8)       62.1960   10.1102    7.2579 C.3       1 UNK         0.0000
   7632 H(1)       58.7135    8.5275    9.2275 H         1 UNK         0.0000
   7633 H(2)       56.8106    7.0087    9.5090 H         1 UNK         0.0000
   7634 H(3)       57.3975    5.5037    5.5310 H         1 UNK         0.0000
   7635 H(4)       59.3152    7.0359    5.2520 H         1 UNK         0.0000
   7636 H(5)       55.6180    4.9317    6.9188 H         1 UNK         0.0000
   7637 H(6)       60.5237    8.8015    5.9999 H         1 UNK         0.0000
   7638 H(7)       61.9776   11.1407    7.3672 H         1 UNK         0.0000
   7639 H(8)       62.3478    9.9030    6.2305 H         1 UNK         0.0000
   7640 H(9)       63.0766    9.9458    7.8227 H         1 UNK         0.0000
   7641 O(1)       63.1884    8.4732   18.2703 O.3       1 UNK         0.0000
   7642 O(2)       68.1623    4.5287   19.5971 O.2       1 UNK         0.0000
   7643 N(1)       67.5113    5.0530   17.4854 N.am      1 UNK         0.0000
   7644 C(1)       66.4039    5.8929   17.7395 C.ar      1 UNK         0.0000
   7645 C(2)       65.6811    5.8948   18.9323 C.ar      1 UNK         0.0000
   7646 C(3)       64.6034    6.7615   19.0889 C.ar      1 UNK         0.0000
   7647 C(4)       64.2331    7.6237   18.0600 C.ar      1 UNK         0.0000
   7648 C(5)       64.9365    7.6000   16.8563 C.ar      1 UNK         0.0000
   7649 C(6)       66.0143    6.7400   16.7014 C.ar      1 UNK         0.0000
   7650 C(7)       68.3186    4.4508   18.3737 C.2       1 UNK         0.0000
   7651 C(8)       69.4421    3.6493   17.7727 C.3       1 UNK         0.0000
   7652 H(1)       65.9596    5.2320   19.7422 H         1 UNK         0.0000
   7653 H(2)       64.0567    6.7508   20.0238 H         1 UNK         0.0000
   7654 H(3)       64.6435    8.2558   16.0457 H         1 UNK         0.0000
   7655 H(4)       66.5612    6.7236   15.7668 H         1 UNK         0.0000
   7656 H(5)       62.8641    8.8278   17.4335 H         1 UNK         0.0000
   7657 H(6)       67.7698    4.9580   16.5147 H         1 UNK         0.0000
   7658 H(7)       69.2236    2.6188   17.8820 H         1 UNK         0.0000
   7659 H(8)       69.5938    3.8565   16.7453 H         1 UNK         0.0000
   7660 H(9)       70.3226    3.8137   18.3375 H         1 UNK         0.0000
   7661 O(1)       62.7157   13.0597   19.4795 O.3       1 UNK         0.0000
   7662 O(2)       57.7418    9.1152   18.1527 O.2       1 UNK         0.0000
   7663 N(1)       58.3929    9.6395   20.2644 N.am      1 UNK         0.0000
   7664 C(1)       59.5002   10.4794   20.0104 C.ar      1 UNK         0.0000
   7665 C(2)       60.2230   10.4813   18.8176 C.ar      1 UNK         0.0000
   7666 C(3)       61.3007   11.3480   18.6609 C.ar      1 UNK         0.0000
   7667 C(4)       61.6710   12.2102   19.6898 C.ar      1 UNK         0.0000
   7668 C(5)       60.9676   12.1865   20.8935 C.ar      1 UNK         0.0000
   7669 C(6)       59.8898   11.3265   21.0484 C.ar      1 UNK         0.0000
   7670 C(7)       57.5855    9.0373   19.3762 C.2       1 UNK         0.0000
   7671 C(8)       56.4621    8.2358   19.9772 C.3       1 UNK         0.0000
   7672 H(1)       59.9446    9.8185   18.0076 H         1 UNK         0.0000
   7673 H(2)       61.8474   11.3373   17.7261 H         1 UNK         0.0000
   7674 H(3)       61.2606   12.8423   21.7041 H         1 UNK         0.0000
   7675 H(4)       59.3429   11.3101   21.9831 H         1 UNK         0.0000
   7676 H(5)       63.0401   13.4143   20.3163 H         1 UNK         0.0000
   7677 H(6)       58.1344    9.5445   21.2352 H         1 UNK         0.0000
   7678 H(7)       56.6805    7.2053   19.8678 H         1 UNK         0.0000
   7679 H(8)       56.3103    8.4430   21.0046 H         1 UNK         0.0000
   7680 H(9)       55.5815    8.4002   19.4124 H         1 UNK         0.0000
   7681 O(1)       67.0437   19.0458    8.9648 O.3       1 UNK         0.0000
   7682 O(2)       62.0698   22.9903    7.6380 O.2       1 UNK         0.0000
   7683 N(1)       62.7208   22.4660    9.7497 N.am      1 UNK         0.0000
   7684 C(1)       63.8281   21.6261    9.4956 C.ar      1 UNK         0.0000
   7685 C(2)       64.5510   21.6242    8.3028 C.ar      1 UNK         0.0000
   7686 C(3)       65.6286   20.7575    8.1462 C.ar      1 UNK         0.0000
   7687 C(4)       65.9990   19.8953    9.1751 C.ar      1 UNK         0.0000
   7688 C(5)       65.2956   19.9190   10.3788 C.ar      1 UNK         0.0000
   7689 C(6)       64.2178   20.7790   10.5337 C.ar      1 UNK         0.0000
   7690 C(7)       61.9135   23.0682    8.8614 C.2       1 UNK         0.0000
   7691 C(8)       60.7900   23.8697    9.4624 C.3       1 UNK         0.0000
   7692 H(1)       64.2725   22.2870    7.4929 H         1 UNK         0.0000
   7693 H(2)       66.1754   20.7682    7.2113 H         1 UNK         0.0000
   7694 H(3)       65.5886   19.2632   11.1894 H         1 UNK         0.0000
   7695 H(4)       63.6709   20.7954   11.4683 H         1 UNK         0.0000
   7696 H(5)       67.3680   18.6912    9.8016 H         1 UNK         0.0000
   7697 H(6)       62.4623   22.5611   10.7204 H         1 UNK         0.0000
   7698 H(7)       61.0085   24.9002    9.3531 H         1 UNK         0.0000
   7699 H(8)       60.6383   23.6625   10.4898 H         1 UNK         0.0000
   7700 H(9)       59.9095   23.7053    8.8976 H         1 UNK         0.0000
   7701 O(1)       56.9151   14.4593   14.7654 O.3       1 UNK         0.0000
   7702 O(2)       61.8890   18.4038   16.0922 O.2       1 UNK         0.0000
   7703 N(1)       61.2379   17.8795   13.9805 N.am      1 UNK         0.0000
   7704 C(1)       60.1306   17.0396   14.2346 C.ar      1 UNK         0.0000
   7705 C(2)       59.4078   17.0377   15.4274 C.ar      1 UNK         0.0000
   7706 C(3)       58.3301   16.1710   15.5840 C.ar      1 UNK         0.0000
   7707 C(4)       57.9598   15.3088   14.5551 C.ar      1 UNK         0.0000
   7708 C(5)       58.6631   15.3325   13.3514 C.ar      1 UNK         0.0000
   7709 C(6)       59.7410   16.1925   13.1965 C.ar      1 UNK         0.0000
   7710 C(7)       62.0453   18.4817   14.8687 C.2       1 UNK         0.0000
   7711 C(8)       63.1687   19.2832   14.2678 C.3       1 UNK         0.0000
   7712 H(1)       59.6862   17.7005   16.2373 H         1 UNK         0.0000
   7713 H(2)       57.7833   16.1817   16.5188 H         1 UNK         0.0000
   7714 H(3)       58.3702   14.6767   12.5408 H         1 UNK         0.0000
   7715 H(4)       60.2879   16.2089   12.2618 H         1 UNK         0.0000
   7716 H(5)       56.5907   14.1047   13.9286 H         1 UNK         0.0000
   7717 H(6)       61.4964   17.9746   13.0098 H         1 UNK         0.0000
   7718 H(7)       62.9503   20.3137   14.3771 H         1 UNK         0.0000
   7719 H(8)       63.3205   19.0760   13.2404 H         1 UNK         0.0000
   7720 H(9)       64.0492   19.1188   14.8326 H         1 UNK         0.0000
   7721 O(1)       61.2430   26.8192    4.2507 O.3       1 UNK         0.0000
   7722 O(2)       66.2169   22.8747    5.5774 O.2       1 UNK         0.0000
   7723 N(1)       65.5659   23.3990    3.4657 N.am      1 UNK         0.0000
   7724 C(1)       64.4586   24.2389    3.7198 C.ar      1 UNK         0.0000
   7725 C(2)       63.7357   24.2408    4.9126 C.ar      1 UNK         0.0000
   7726 C(3)       62.6581   25.1075    5.0693 C.ar      1 UNK         0.0000
   7727 C(4)       62.2877   25.9697    4.0404 C.ar      1 UNK         0.0000
   7728 C(5)       62.9911   25.9460    2.8367 C.ar      1 UNK         0.0000
   7729 C(6)       64.0689   25.0860    2.6817 C.ar      1 UNK         0.0000
   7730 C(7)       66.3732   22.7968    4.3540 C.2       1 UNK         0.0000
   7731 C(8)       67.4967   21.9953    3.7530 C.3       1 UNK         0.0000
   7732 H(1)       64.0142   23.5780    5.7226 H         1 UNK         0.0000
   7733 H(2)       62.1113   25.0968    6.0041 H         1 UNK         0.0000
   7734 H(3)       62.6981   26.6018    2.0261 H         1 UNK         0.0000
   7735 H(4)       64.6158   25.0696    1.7471 H         1 UNK         0.0000
   7736 H(5)       60.9187   27.1738    3.4139 H         1 UNK         0.0000
   7737 H(6)       65.8244   23.3040    2.4950 H         1 UNK         0.0000
   7738 H(7)       67.2782   20.9648    3.8623 H         1 UNK         0.0000
   7739 H(8)       67.6484   22.2025    2.7256 H         1 UNK         0.0000
   7740 H(9)       68.3772   22.1597    4.3178 H         1 UNK         0.0000
   7741 O(1)       60.7703   22.2327    5.4598 O.3       1 UNK         0.0000
   7742 O(2)       55.7964   18.2882    4.1331 O.2       1 UNK         0.0000
   7743 N(1)       56.4475   18.8125    6.2448 N.am      1 UNK         0.0000
   7744 C(1)       57.5548   19.6524    5.9907 C.ar      1 UNK         0.0000
   7745 C(2)       58.2776   19.6543    4.7979 C.ar      1 UNK         0.0000
   7746 C(3)       59.3553   20.5210    4.6412 C.ar      1 UNK         0.0000
   7747 C(4)       59.7256   21.3832    5.6701 C.ar      1 UNK         0.0000
   7748 C(5)       59.0223   21.3595    6.8738 C.ar      1 UNK         0.0000
   7749 C(6)       57.9444   20.4995    7.0288 C.ar      1 UNK         0.0000
   7750 C(7)       55.6401   18.2103    5.3565 C.2       1 UNK         0.0000
   7751 C(8)       54.5167   17.4088    5.9575 C.3       1 UNK         0.0000
   7752 H(1)       57.9992   18.9915    3.9879 H         1 UNK         0.0000
   7753 H(2)       59.9021   20.5103    3.7064 H         1 UNK         0.0000
   7754 H(3)       59.3152   22.0153    7.6844 H         1 UNK         0.0000
   7755 H(4)       57.3975   20.4831    7.9634 H         1 UNK         0.0000
   7756 H(5)       61.0947   22.5873    6.2966 H         1 UNK         0.0000
   7757 H(6)       56.1890   18.7175    7.2155 H         1 UNK         0.0000
   7758 H(7)       54.7351   16.3783    5.8482 H         1 UNK         0.0000
   7759 H(8)       54.3649   17.6160    6.9849 H         1 UNK         0.0000
   7760 H(9)       53.6361   17.5732    5.3927 H         1 UNK         0.0000
   7761 O(1)       68.0164   19.0458   15.9746 O.3       1 UNK         0.0000
   7762 O(2)       63.0425   22.9903   14.6478 O.2       1 UNK         0.0000
   7763 N(1)       63.6935   22.4660   16.7595 N.am      1 UNK         0.0000
   7764 C(1)       64.8008   21.6261   16.5055 C.ar      1 UNK         0.0000
   7765 C(2)       65.5237   21.6242   15.3126 C.ar      1 UNK         0.0000
   7766 C(3)       66.6013   20.7575   15.1560 C.ar      1 UNK         0.0000
   7767 C(4)       66.9716   19.8953   16.1849 C.ar      1 UNK         0.0000
   7768 C(5)       66.2683   19.9190   17.3886 C.ar      1 UNK         0.0000
   7769 C(6)       65.1905   20.7790   17.5435 C.ar      1 UNK         0.0000
   7770 C(7)       62.8862   23.0682   15.8713 C.2       1 UNK         0.0000
   7771 C(8)       61.7627   23.8697   16.4723 C.3       1 UNK         0.0000
   7772 H(1)       65.2452   22.2870   14.5027 H         1 UNK         0.0000
   7773 H(2)       67.1481   20.7682   14.2212 H         1 UNK         0.0000
   7774 H(3)       66.5613   19.2632   18.1992 H         1 UNK         0.0000
   7775 H(4)       64.6436   20.7954   18.4782 H         1 UNK         0.0000
   7776 H(5)       68.3407   18.6912   16.8114 H         1 UNK         0.0000
   7777 H(6)       63.4350   22.5611   17.7302 H         1 UNK         0.0000
   7778 H(7)       61.9812   24.9002   16.3629 H         1 UNK         0.0000
   7779 H(8)       61.6109   23.6625   17.4996 H         1 UNK         0.0000
   7780 H(9)       60.8822   23.7053   15.9074 H         1 UNK         0.0000
   7781 O(1)       69.4618   14.4593   21.7753 O.3       1 UNK         0.0000
   7782 O(2)       74.4357   18.4038   23.1020 O.2       1 UNK         0.0000
   7783 N(1)       73.7846   17.8795   20.9903 N.am      1 UNK         0.0000
   7784 C(1)       72.6773   17.0396   21.2444 C.ar      1 UNK         0.0000
   7785 C(2)       71.9545   17.0377   22.4372 C.ar      1 UNK         0.0000
   7786 C(3)       70.8768   16.1710   22.5939 C.ar      1 UNK         0.0000
   7787 C(4)       70.5065   15.3088   21.5650 C.ar      1 UNK         0.0000
   7788 C(5)       71.2098   15.3325   20.3613 C.ar      1 UNK         0.0000
   7789 C(6)       72.2876   16.1925   20.2063 C.ar      1 UNK         0.0000
   7790 C(7)       74.5920   18.4817   21.8786 C.2       1 UNK         0.0000
   7791 C(8)       75.7154   19.2832   21.2776 C.3       1 UNK         0.0000
   7792 H(1)       72.2329   17.7005   23.2472 H         1 UNK         0.0000
   7793 H(2)       70.3300   16.1817   23.5287 H         1 UNK         0.0000
   7794 H(3)       70.9169   14.6767   19.5507 H         1 UNK         0.0000
   7795 H(4)       72.8346   16.2089   19.2717 H         1 UNK         0.0000
   7796 H(5)       69.1374   14.1047   20.9385 H         1 UNK         0.0000
   7797 H(6)       74.0431   17.9746   20.0196 H         1 UNK         0.0000
   7798 H(7)       75.4970   20.3137   21.3869 H         1 UNK         0.0000
   7799 H(8)       75.8672   19.0760   20.2502 H         1 UNK         0.0000
   7800 H(9)       76.5959   19.1188   21.8424 H         1 UNK         0.0000
   7801 O(1)       62.2157   26.8192   11.2605 O.3       1 UNK         0.0000
   7802 O(2)       67.1896   22.8747   12.5873 O.2       1 UNK         0.0000
   7803 N(1)       66.5386   23.3990   10.4756 N.am      1 UNK         0.0000
   7804 C(1)       65.4312   24.2389   10.7296 C.ar      1 UNK         0.0000
   7805 C(2)       64.7084   24.2408   11.9225 C.ar      1 UNK         0.0000
   7806 C(3)       63.6307   25.1075   12.0791 C.ar      1 UNK         0.0000
   7807 C(4)       63.2604   25.9697   11.0502 C.ar      1 UNK         0.0000
   7808 C(5)       63.9638   25.9460    9.8465 C.ar      1 UNK         0.0000
   7809 C(6)       65.0416   25.0860    9.6916 C.ar      1 UNK         0.0000
   7810 C(7)       67.3459   22.7968   11.3638 C.2       1 UNK         0.0000
   7811 C(8)       68.4694   21.9953   10.7628 C.3       1 UNK         0.0000
   7812 H(1)       64.9869   23.5780   12.7324 H         1 UNK         0.0000
   7813 H(2)       63.0840   25.0968   13.0139 H         1 UNK         0.0000
   7814 H(3)       63.6708   26.6018    9.0359 H         1 UNK         0.0000
   7815 H(4)       65.5885   25.0696    8.7569 H         1 UNK         0.0000
   7816 H(5)       61.8914   27.1738   10.4237 H         1 UNK         0.0000
   7817 H(6)       66.7971   23.3040    9.5049 H         1 UNK         0.0000
   7818 H(7)       68.2509   20.9648   10.8722 H         1 UNK         0.0000
   7819 H(8)       68.6211   22.2025    9.7355 H         1 UNK         0.0000
   7820 H(9)       69.3499   22.1597   11.3277 H         1 UNK         0.0000
   7821 O(1)       73.3170   22.2327   12.4697 O.3       1 UNK         0.0000
   7822 O(2)       68.3431   18.2882   11.1429 O.2       1 UNK         0.0000
   7823 N(1)       68.9942   18.8125   13.2546 N.am      1 UNK         0.0000
   7824 C(1)       70.1015   19.6524   13.0005 C.ar      1 UNK         0.0000
   7825 C(2)       70.8243   19.6543   11.8077 C.ar      1 UNK         0.0000
   7826 C(3)       71.9020   20.5210   11.6511 C.ar      1 UNK         0.0000
   7827 C(4)       72.2723   21.3832   12.6800 C.ar      1 UNK         0.0000
   7828 C(5)       71.5690   21.3595   13.8837 C.ar      1 UNK         0.0000
   7829 C(6)       70.4911   20.4995   14.0386 C.ar      1 UNK         0.0000
   7830 C(7)       68.1868   18.2103   12.3664 C.2       1 UNK         0.0000
   7831 C(8)       67.0634   17.4088   12.9673 C.3       1 UNK         0.0000
   7832 H(1)       70.5459   18.9915   10.9978 H         1 UNK         0.0000
   7833 H(2)       72.4488   20.5103   10.7162 H         1 UNK         0.0000
   7834 H(3)       71.8619   22.0153   14.6943 H         1 UNK         0.0000
   7835 H(4)       69.9442   20.4831   14.9733 H         1 UNK         0.0000
   7836 H(5)       73.6414   22.5873   13.3065 H         1 UNK         0.0000
   7837 H(6)       68.7357   18.7175   14.2253 H         1 UNK         0.0000
   7838 H(7)       67.2818   16.3783   12.8580 H         1 UNK         0.0000
   7839 H(8)       66.9116   17.6160   13.9947 H         1 UNK         0.0000
   7840 H(9)       66.1828   17.5732   12.4025 H         1 UNK         0.0000
   7841 O(1)       68.9891   19.0458    1.7534 O.3       1 UNK         0.0000
   7842 O(2)       64.0152   22.9903    0.4267 O.2       1 UNK         0.0000
   7843 N(1)       64.6662   22.4660    2.5384 N.am      1 UNK         0.0000
   7844 C(1)       65.7735   21.6261    2.2843 C.ar      1 UNK         0.0000
   7845 C(2)       66.4964   21.6242    1.0915 C.ar      1 UNK         0.0000
   7846 C(3)       67.5740   20.7575    0.9348 C.ar      1 UNK         0.0000
   7847 C(4)       67.9443   19.8953    1.9637 C.ar      1 UNK         0.0000
   7848 C(5)       67.2410   19.9190    3.1674 C.ar      1 UNK         0.0000
   7849 C(6)       66.1632   20.7790    3.3223 C.ar      1 UNK         0.0000
   7850 C(7)       63.8589   23.0682    1.6501 C.2       1 UNK         0.0000
   7851 C(8)       62.7354   23.8697    2.2511 C.3       1 UNK         0.0000
   7852 H(1)       66.2179   22.2870    0.2815 H         1 UNK         0.0000
   7853 H(2)       68.1208   20.7682    0.0000 H         1 UNK         0.0000
   7854 H(3)       67.5339   19.2632    3.9780 H         1 UNK         0.0000
   7855 H(4)       65.6163   20.7954    4.2570 H         1 UNK         0.0000
   7856 H(5)       69.3134   18.6912    2.5902 H         1 UNK         0.0000
   7857 H(6)       64.4077   22.5611    3.5091 H         1 UNK         0.0000
   7858 H(7)       62.9539   24.9002    2.1418 H         1 UNK         0.0000
   7859 H(8)       62.5836   23.6625    3.2785 H         1 UNK         0.0000
   7860 H(9)       61.8549   23.7053    1.6863 H         1 UNK         0.0000
   7861 O(1)       55.9424   14.4593    7.7556 O.3       1 UNK         0.0000
   7862 O(2)       60.9163   18.4038    9.0824 O.2       1 UNK         0.0000
   7863 N(1)       60.2652   17.8795    6.9707 N.am      1 UNK         0.0000
   7864 C(1)       59.1579   17.0396    7.2247 C.ar      1 UNK         0.0000
   7865 C(2)       58.4351   17.0377    8.4175 C.ar      1 UNK         0.0000
   7866 C(3)       57.3574   16.1710    8.5742 C.ar      1 UNK         0.0000
   7867 C(4)       56.9871   15.3088    7.5453 C.ar      1 UNK         0.0000
   7868 C(5)       57.6904   15.3325    6.3416 C.ar      1 UNK         0.0000
   7869 C(6)       58.7683   16.1925    6.1867 C.ar      1 UNK         0.0000
   7870 C(7)       61.0726   18.4817    7.8589 C.2       1 UNK         0.0000
   7871 C(8)       62.1960   19.2832    7.2579 C.3       1 UNK         0.0000
   7872 H(1)       58.7135   17.7005    9.2275 H         1 UNK         0.0000
   7873 H(2)       56.8106   16.1817    9.5090 H         1 UNK         0.0000
   7874 H(3)       57.3975   14.6767    5.5310 H         1 UNK         0.0000
   7875 H(4)       59.3152   16.2089    5.2520 H         1 UNK         0.0000
   7876 H(5)       55.6180   14.1047    6.9188 H         1 UNK         0.0000
   7877 H(6)       60.5237   17.9746    5.9999 H         1 UNK         0.0000
   7878 H(7)       61.9776   20.3137    7.3672 H         1 UNK         0.0000
   7879 H(8)       62.3478   19.0760    6.2305 H         1 UNK         0.0000
   7880 H(9)       63.0766   19.1188    7.8227 H         1 UNK         0.0000
   7881 O(1)       63.1884   17.6462   18.2703 O.3       1 UNK         0.0000
   7882 O(2)       68.1623   13.7017   19.5971 O.2       1 UNK         0.0000
   7883 N(1)       67.5113   14.2260   17.4854 N.am      1 UNK         0.0000
   7884 C(1)       66.4039   15.0659   17.7395 C.ar      1 UNK         0.0000
   7885 C(2)       65.6811   15.0678   18.9323 C.ar      1 UNK         0.0000
   7886 C(3)       64.6034   15.9345   19.0889 C.ar      1 UNK         0.0000
   7887 C(4)       64.2331   16.7967   18.0600 C.ar      1 UNK         0.0000
   7888 C(5)       64.9365   16.7730   16.8563 C.ar      1 UNK         0.0000
   7889 C(6)       66.0143   15.9130   16.7014 C.ar      1 UNK         0.0000
   7890 C(7)       68.3186   13.6238   18.3737 C.2       1 UNK         0.0000
   7891 C(8)       69.4421   12.8223   17.7727 C.3       1 UNK         0.0000
   7892 H(1)       65.9596   14.4050   19.7422 H         1 UNK         0.0000
   7893 H(2)       64.0567   15.9238   20.0238 H         1 UNK         0.0000
   7894 H(3)       64.6435   17.4288   16.0457 H         1 UNK         0.0000
   7895 H(4)       66.5612   15.8966   15.7668 H         1 UNK         0.0000
   7896 H(5)       62.8641   18.0008   17.4335 H         1 UNK         0.0000
   7897 H(6)       67.7698   14.1310   16.5147 H         1 UNK         0.0000
   7898 H(7)       69.2236   11.7918   17.8820 H         1 UNK         0.0000
   7899 H(8)       69.5938   13.0295   16.7453 H         1 UNK         0.0000
   7900 H(9)       70.3226   12.9867   18.3375 H         1 UNK         0.0000
   7901 O(1)       62.7157   22.2327   19.4795 O.3       1 UNK         0.0000
   7902 O(2)       57.7418   18.2882   18.1527 O.2       1 UNK         0.0000
   7903 N(1)       58.3929   18.8125   20.2644 N.am      1 UNK         0.0000
   7904 C(1)       59.5002   19.6524   20.0104 C.ar      1 UNK         0.0000
   7905 C(2)       60.2230   19.6543   18.8176 C.ar      1 UNK         0.0000
   7906 C(3)       61.3007   20.5210   18.6609 C.ar      1 UNK         0.0000
   7907 C(4)       61.6710   21.3832   19.6898 C.ar      1 UNK         0.0000
   7908 C(5)       60.9676   21.3595   20.8935 C.ar      1 UNK         0.0000
   7909 C(6)       59.8898   20.4995   21.0484 C.ar      1 UNK         0.0000
   7910 C(7)       57.5855   18.2103   19.3762 C.2       1 UNK         0.0000
   7911 C(8)       56.4621   17.4088   19.9772 C.3       1 UNK         0.0000
   7912 H(1)       59.9446   18.9915   18.0076 H         1 UNK         0.0000
   7913 H(2)       61.8474   20.5103   17.7261 H         1 UNK         0.0000
   7914 H(3)       61.2606   22.0153   21.7041 H         1 UNK         0.0000
   7915 H(4)       59.3429   20.4831   21.9831 H         1 UNK         0.0000
   7916 H(5)       63.0401   22.5873   20.3163 H         1 UNK         0.0000
   7917 H(6)       58.1344   18.7175   21.2352 H         1 UNK         0.0000
   7918 H(7)       56.6805   16.3783   19.8678 H         1 UNK         0.0000
   7919 H(8)       56.3103   17.6160   21.0046 H         1 UNK         0.0000
   7920 H(9)       55.5815   17.5732   19.4124 H         1 UNK         0.0000
   7921 O(1)       67.0437   28.2188    8.9648 O.3       1 UNK         0.0000
   7922 O(2)       62.0698   32.1633    7.6380 O.2       1 UNK         0.0000
   7923 N(1)       62.7208   31.6390    9.7497 N.am      1 UNK         0.0000
   7924 C(1)       63.8281   30.7991    9.4956 C.ar      1 UNK         0.0000
   7925 C(2)       64.5510   30.7972    8.3028 C.ar      1 UNK         0.0000
   7926 C(3)       65.6286   29.9305    8.1462 C.ar      1 UNK         0.0000
   7927 C(4)       65.9990   29.0683    9.1751 C.ar      1 UNK         0.0000
   7928 C(5)       65.2956   29.0920   10.3788 C.ar      1 UNK         0.0000
   7929 C(6)       64.2178   29.9520   10.5337 C.ar      1 UNK         0.0000
   7930 C(7)       61.9135   32.2412    8.8614 C.2       1 UNK         0.0000
   7931 C(8)       60.7900   33.0427    9.4624 C.3       1 UNK         0.0000
   7932 H(1)       64.2725   31.4600    7.4929 H         1 UNK         0.0000
   7933 H(2)       66.1754   29.9412    7.2113 H         1 UNK         0.0000
   7934 H(3)       65.5886   28.4362   11.1894 H         1 UNK         0.0000
   7935 H(4)       63.6709   29.9684   11.4683 H         1 UNK         0.0000
   7936 H(5)       67.3680   27.8642    9.8016 H         1 UNK         0.0000
   7937 H(6)       62.4623   31.7340   10.7204 H         1 UNK         0.0000
   7938 H(7)       61.0085   34.0732    9.3531 H         1 UNK         0.0000
   7939 H(8)       60.6383   32.8355   10.4898 H         1 UNK         0.0000
   7940 H(9)       59.9095   32.8783    8.8976 H         1 UNK         0.0000
   7941 O(1)       56.9151   23.6323   14.7654 O.3       1 UNK         0.0000
   7942 O(2)       61.8890   27.5768   16.0922 O.2       1 UNK         0.0000
   7943 N(1)       61.2379   27.0525   13.9805 N.am      1 UNK         0.0000
   7944 C(1)       60.1306   26.2126   14.2346 C.ar      1 UNK         0.0000
   7945 C(2)       59.4078   26.2107   15.4274 C.ar      1 UNK         0.0000
   7946 C(3)       58.3301   25.3440   15.5840 C.ar      1 UNK         0.0000
   7947 C(4)       57.9598   24.4818   14.5551 C.ar      1 UNK         0.0000
   7948 C(5)       58.6631   24.5055   13.3514 C.ar      1 UNK         0.0000
   7949 C(6)       59.7410   25.3655   13.1965 C.ar      1 UNK         0.0000
   7950 C(7)       62.0453   27.6547   14.8687 C.2       1 UNK         0.0000
   7951 C(8)       63.1687   28.4562   14.2678 C.3       1 UNK         0.0000
   7952 H(1)       59.6862   26.8735   16.2373 H         1 UNK         0.0000
   7953 H(2)       57.7833   25.3547   16.5188 H         1 UNK         0.0000
   7954 H(3)       58.3702   23.8497   12.5408 H         1 UNK         0.0000
   7955 H(4)       60.2879   25.3819   12.2618 H         1 UNK         0.0000
   7956 H(5)       56.5907   23.2777   13.9286 H         1 UNK         0.0000
   7957 H(6)       61.4964   27.1475   13.0098 H         1 UNK         0.0000
   7958 H(7)       62.9503   29.4867   14.3771 H         1 UNK         0.0000
   7959 H(8)       63.3205   28.2490   13.2404 H         1 UNK         0.0000
   7960 H(9)       64.0492   28.2918   14.8326 H         1 UNK         0.0000
   7961 O(1)       61.2430   35.9922    4.2507 O.3       1 UNK         0.0000
   7962 O(2)       66.2169   32.0477    5.5774 O.2       1 UNK         0.0000
   7963 N(1)       65.5659   32.5720    3.4657 N.am      1 UNK         0.0000
   7964 C(1)       64.4586   33.4119    3.7198 C.ar      1 UNK         0.0000
   7965 C(2)       63.7357   33.4138    4.9126 C.ar      1 UNK         0.0000
   7966 C(3)       62.6581   34.2805    5.0693 C.ar      1 UNK         0.0000
   7967 C(4)       62.2877   35.1427    4.0404 C.ar      1 UNK         0.0000
   7968 C(5)       62.9911   35.1190    2.8367 C.ar      1 UNK         0.0000
   7969 C(6)       64.0689   34.2590    2.6817 C.ar      1 UNK         0.0000
   7970 C(7)       66.3732   31.9698    4.3540 C.2       1 UNK         0.0000
   7971 C(8)       67.4967   31.1683    3.7530 C.3       1 UNK         0.0000
   7972 H(1)       64.0142   32.7510    5.7226 H         1 UNK         0.0000
   7973 H(2)       62.1113   34.2698    6.0041 H         1 UNK         0.0000
   7974 H(3)       62.6981   35.7748    2.0261 H         1 UNK         0.0000
   7975 H(4)       64.6158   34.2426    1.7471 H         1 UNK         0.0000
   7976 H(5)       60.9187   36.3468    3.4139 H         1 UNK         0.0000
   7977 H(6)       65.8244   32.4770    2.4950 H         1 UNK         0.0000
   7978 H(7)       67.2782   30.1378    3.8623 H         1 UNK         0.0000
   7979 H(8)       67.6484   31.3755    2.7256 H         1 UNK         0.0000
   7980 H(9)       68.3772   31.3327    4.3178 H         1 UNK         0.0000
   7981 O(1)       60.7703   31.4057    5.4598 O.3       1 UNK         0.0000
   7982 O(2)       55.7964   27.4612    4.1331 O.2       1 UNK         0.0000
   7983 N(1)       56.4475   27.9855    6.2448 N.am      1 UNK         0.0000
   7984 C(1)       57.5548   28.8254    5.9907 C.ar      1 UNK         0.0000
   7985 C(2)       58.2776   28.8273    4.7979 C.ar      1 UNK         0.0000
   7986 C(3)       59.3553   29.6940    4.6412 C.ar      1 UNK         0.0000
   7987 C(4)       59.7256   30.5562    5.6701 C.ar      1 UNK         0.0000
   7988 C(5)       59.0223   30.5325    6.8738 C.ar      1 UNK         0.0000
   7989 C(6)       57.9444   29.6725    7.0288 C.ar      1 UNK         0.0000
   7990 C(7)       55.6401   27.3833    5.3565 C.2       1 UNK         0.0000
   7991 C(8)       54.5167   26.5818    5.9575 C.3       1 UNK         0.0000
   7992 H(1)       57.9992   28.1645    3.9879 H         1 UNK         0.0000
   7993 H(2)       59.9021   29.6833    3.7064 H         1 UNK         0.0000
   7994 H(3)       59.3152   31.1883    7.6844 H         1 UNK         0.0000
   7995 H(4)       57.3975   29.6561    7.9634 H         1 UNK         0.0000
   7996 H(5)       61.0947   31.7603    6.2966 H         1 UNK         0.0000
   7997 H(6)       56.1890   27.8905    7.2155 H         1 UNK         0.0000
   7998 H(7)       54.7351   25.5513    5.8482 H         1 UNK         0.0000
   7999 H(8)       54.3649   26.7890    6.9849 H         1 UNK         0.0000
   8000 H(9)       53.6361   26.7462    5.3927 H         1 UNK         0.0000
   8001 O(1)       68.0164   28.2188   15.9746 O.3       1 UNK         0.0000
   8002 O(2)       63.0425   32.1633   14.6478 O.2       1 UNK         0.0000
   8003 N(1)       63.6935   31.6390   16.7595 N.am      1 UNK         0.0000
   8004 C(1)       64.8008   30.7991   16.5055 C.ar      1 UNK         0.0000
   8005 C(2)       65.5237   30.7972   15.3126 C.ar      1 UNK         0.0000
   8006 C(3)       66.6013   29.9305   15.1560 C.ar      1 UNK         0.0000
   8007 C(4)       66.9716   29.0683   16.1849 C.ar      1 UNK         0.0000
   8008 C(5)       66.2683   29.0920   17.3886 C.ar      1 UNK         0.0000
   8009 C(6)       65.1905   29.9520   17.5435 C.ar      1 UNK         0.0000
   8010 C(7)       62.8862   32.2412   15.8713 C.2       1 UNK         0.0000
   8011 C(8)       61.7627   33.0427   16.4723 C.3       1 UNK         0.0000
   8012 H(1)       65.2452   31.4600   14.5027 H         1 UNK         0.0000
   8013 H(2)       67.1481   29.9412   14.2212 H         1 UNK         0.0000
   8014 H(3)       66.5613   28.4362   18.1992 H         1 UNK         0.0000
   8015 H(4)       64.6436   29.9684   18.4782 H         1 UNK         0.0000
   8016 H(5)       68.3407   27.8642   16.8114 H         1 UNK         0.0000
   8017 H(6)       63.4350   31.7340   17.7302 H         1 UNK         0.0000
   8018 H(7)       61.9812   34.0732   16.3629 H         1 UNK         0.0000
   8019 H(8)       61.6109   32.8355   17.4996 H         1 UNK         0.0000
   8020 H(9)       60.8822   32.8783   15.9074 H         1 UNK         0.0000
   8021 O(1)       69.4618   23.6323   21.7753 O.3       1 UNK         0.0000
   8022 O(2)       74.4357   27.5768   23.1020 O.2       1 UNK         0.0000
   8023 N(1)       73.7846   27.0525   20.9903 N.am      1 UNK         0.0000
   8024 C(1)       72.6773   26.2126   21.2444 C.ar      1 UNK         0.0000
   8025 C(2)       71.9545   26.2107   22.4372 C.ar      1 UNK         0.0000
   8026 C(3)       70.8768   25.3440   22.5939 C.ar      1 UNK         0.0000
   8027 C(4)       70.5065   24.4818   21.5650 C.ar      1 UNK         0.0000
   8028 C(5)       71.2098   24.5055   20.3613 C.ar      1 UNK         0.0000
   8029 C(6)       72.2876   25.3655   20.2063 C.ar      1 UNK         0.0000
   8030 C(7)       74.5920   27.6547   21.8786 C.2       1 UNK         0.0000
   8031 C(8)       75.7154   28.4562   21.2776 C.3       1 UNK         0.0000
   8032 H(1)       72.2329   26.8735   23.2472 H         1 UNK         0.0000
   8033 H(2)       70.3300   25.3547   23.5287 H         1 UNK         0.0000
   8034 H(3)       70.9169   23.8497   19.5507 H         1 UNK         0.0000
   8035 H(4)       72.8346   25.3819   19.2717 H         1 UNK         0.0000
   8036 H(5)       69.1374   23.2777   20.9385 H         1 UNK         0.0000
   8037 H(6)       74.0431   27.1475   20.0196 H         1 UNK         0.0000
   8038 H(7)       75.4970   29.4867   21.3869 H         1 UNK         0.0000
   8039 H(8)       75.8672   28.2490   20.2502 H         1 UNK         0.0000
   8040 H(9)       76.5959   28.2918   21.8424 H         1 UNK         0.0000
   8041 O(1)       62.2157   35.9922   11.2605 O.3       1 UNK         0.0000
   8042 O(2)       67.1896   32.0477   12.5873 O.2       1 UNK         0.0000
   8043 N(1)       66.5386   32.5720   10.4756 N.am      1 UNK         0.0000
   8044 C(1)       65.4312   33.4119   10.7296 C.ar      1 UNK         0.0000
   8045 C(2)       64.7084   33.4138   11.9225 C.ar      1 UNK         0.0000
   8046 C(3)       63.6307   34.2805   12.0791 C.ar      1 UNK         0.0000
   8047 C(4)       63.2604   35.1427   11.0502 C.ar      1 UNK         0.0000
   8048 C(5)       63.9638   35.1190    9.8465 C.ar      1 UNK         0.0000
   8049 C(6)       65.0416   34.2590    9.6916 C.ar      1 UNK         0.0000
   8050 C(7)       67.3459   31.9698   11.3638 C.2       1 UNK         0.0000
   8051 C(8)       68.4694   31.1683   10.7628 C.3       1 UNK         0.0000
   8052 H(1)       64.9869   32.7510   12.7324 H         1 UNK         0.0000
   8053 H(2)       63.0840   34.2698   13.0139 H         1 UNK         0.0000
   8054 H(3)       63.6708   35.7748    9.0359 H         1 UNK         0.0000
   8055 H(4)       65.5885   34.2426    8.7569 H         1 UNK         0.0000
   8056 H(5)       61.8914   36.3468   10.4237 H         1 UNK         0.0000
   8057 H(6)       66.7971   32.4770    9.5049 H         1 UNK         0.0000
   8058 H(7)       68.2509   30.1378   10.8722 H         1 UNK         0.0000
   8059 H(8)       68.6211   31.3755    9.7355 H         1 UNK         0.0000
   8060 H(9)       69.3499   31.3327   11.3277 H         1 UNK         0.0000
   8061 O(1)       73.3170   31.4057   12.4697 O.3       1 UNK         0.0000
   8062 O(2)       68.3431   27.4612   11.1429 O.2       1 UNK         0.0000
   8063 N(1)       68.9942   27.9855   13.2546 N.am      1 UNK         0.0000
   8064 C(1)       70.1015   28.8254   13.0005 C.ar      1 UNK         0.0000
   8065 C(2)       70.8243   28.8273   11.8077 C.ar      1 UNK         0.0000
   8066 C(3)       71.9020   29.6940   11.6511 C.ar      1 UNK         0.0000
   8067 C(4)       72.2723   30.5562   12.6800 C.ar      1 UNK         0.0000
   8068 C(5)       71.5690   30.5325   13.8837 C.ar      1 UNK         0.0000
   8069 C(6)       70.4911   29.6725   14.0386 C.ar      1 UNK         0.0000
   8070 C(7)       68.1868   27.3833   12.3664 C.2       1 UNK         0.0000
   8071 C(8)       67.0634   26.5818   12.9673 C.3       1 UNK         0.0000
   8072 H(1)       70.5459   28.1645   10.9978 H         1 UNK         0.0000
   8073 H(2)       72.4488   29.6833   10.7162 H         1 UNK         0.0000
   8074 H(3)       71.8619   31.1883   14.6943 H         1 UNK         0.0000
   8075 H(4)       69.9442   29.6561   14.9733 H         1 UNK         0.0000
   8076 H(5)       73.6414   31.7603   13.3065 H         1 UNK         0.0000
   8077 H(6)       68.7357   27.8905   14.2253 H         1 UNK         0.0000
   8078 H(7)       67.2818   25.5513   12.8580 H         1 UNK         0.0000
   8079 H(8)       66.9116   26.7890   13.9947 H         1 UNK         0.0000
   8080 H(9)       66.1828   26.7462   12.4025 H         1 UNK         0.0000
   8081 O(1)       68.9891   28.2188    1.7534 O.3       1 UNK         0.0000
   8082 O(2)       64.0152   32.1633    0.4267 O.2       1 UNK         0.0000
   8083 N(1)       64.6662   31.6390    2.5384 N.am      1 UNK         0.0000
   8084 C(1)       65.7735   30.7991    2.2843 C.ar      1 UNK         0.0000
   8085 C(2)       66.4964   30.7972    1.0915 C.ar      1 UNK         0.0000
   8086 C(3)       67.5740   29.9305    0.9348 C.ar      1 UNK         0.0000
   8087 C(4)       67.9443   29.0683    1.9637 C.ar      1 UNK         0.0000
   8088 C(5)       67.2410   29.0920    3.1674 C.ar      1 UNK         0.0000
   8089 C(6)       66.1632   29.9520    3.3223 C.ar      1 UNK         0.0000
   8090 C(7)       63.8589   32.2412    1.6501 C.2       1 UNK         0.0000
   8091 C(8)       62.7354   33.0427    2.2511 C.3       1 UNK         0.0000
   8092 H(1)       66.2179   31.4600    0.2815 H         1 UNK         0.0000
   8093 H(2)       68.1208   29.9412    0.0000 H         1 UNK         0.0000
   8094 H(3)       67.5339   28.4362    3.9780 H         1 UNK         0.0000
   8095 H(4)       65.6163   29.9684    4.2570 H         1 UNK         0.0000
   8096 H(5)       69.3134   27.8642    2.5902 H         1 UNK         0.0000
   8097 H(6)       64.4077   31.7340    3.5091 H         1 UNK         0.0000
   8098 H(7)       62.9539   34.0732    2.1418 H         1 UNK         0.0000
   8099 H(8)       62.5836   32.8355    3.2785 H         1 UNK         0.0000
   8100 H(9)       61.8549   32.8783    1.6863 H         1 UNK         0.0000
   8101 O(1)       55.9424   23.6323    7.7556 O.3       1 UNK         0.0000
   8102 O(2)       60.9163   27.5768    9.0824 O.2       1 UNK         0.0000
   8103 N(1)       60.2652   27.0525    6.9707 N.am      1 UNK         0.0000
   8104 C(1)       59.1579   26.2126    7.2247 C.ar      1 UNK         0.0000
   8105 C(2)       58.4351   26.2107    8.4175 C.ar      1 UNK         0.0000
   8106 C(3)       57.3574   25.3440    8.5742 C.ar      1 UNK         0.0000
   8107 C(4)       56.9871   24.4818    7.5453 C.ar      1 UNK         0.0000
   8108 C(5)       57.6904   24.5055    6.3416 C.ar      1 UNK         0.0000
   8109 C(6)       58.7683   25.3655    6.1867 C.ar      1 UNK         0.0000
   8110 C(7)       61.0726   27.6547    7.8589 C.2       1 UNK         0.0000
   8111 C(8)       62.1960   28.4562    7.2579 C.3       1 UNK         0.0000
   8112 H(1)       58.7135   26.8735    9.2275 H         1 UNK         0.0000
   8113 H(2)       56.8106   25.3547    9.5090 H         1 UNK         0.0000
   8114 H(3)       57.3975   23.8497    5.5310 H         1 UNK         0.0000
   8115 H(4)       59.3152   25.3819    5.2520 H         1 UNK         0.0000
   8116 H(5)       55.6180   23.2777    6.9188 H         1 UNK         0.0000
   8117 H(6)       60.5237   27.1475    5.9999 H         1 UNK         0.0000
   8118 H(7)       61.9776   29.4867    7.3672 H         1 UNK         0.0000
   8119 H(8)       62.3478   28.2490    6.2305 H         1 UNK         0.0000
   8120 H(9)       63.0766   28.2918    7.8227 H         1 UNK         0.0000
   8121 O(1)       63.1884   26.8192   18.2703 O.3       1 UNK         0.0000
   8122 O(2)       68.1623   22.8747   19.5971 O.2       1 UNK         0.0000
   8123 N(1)       67.5113   23.3990   17.4854 N.am      1 UNK         0.0000
   8124 C(1)       66.4039   24.2389   17.7395 C.ar      1 UNK         0.0000
   8125 C(2)       65.6811   24.2408   18.9323 C.ar      1 UNK         0.0000
   8126 C(3)       64.6034   25.1075   19.0889 C.ar      1 UNK         0.0000
   8127 C(4)       64.2331   25.9697   18.0600 C.ar      1 UNK         0.0000
   8128 C(5)       64.9365   25.9460   16.8563 C.ar      1 UNK         0.0000
   8129 C(6)       66.0143   25.0860   16.7014 C.ar      1 UNK         0.0000
   8130 C(7)       68.3186   22.7968   18.3737 C.2       1 UNK         0.0000
   8131 C(8)       69.4421   21.9953   17.7727 C.3       1 UNK         0.0000
   8132 H(1)       65.9596   23.5780   19.7422 H         1 UNK         0.0000
   8133 H(2)       64.0567   25.0968   20.0238 H         1 UNK         0.0000
   8134 H(3)       64.6435   26.6018   16.0457 H         1 UNK         0.0000
   8135 H(4)       66.5612   25.0696   15.7668 H         1 UNK         0.0000
   8136 H(5)       62.8641   27.1738   17.4335 H         1 UNK         0.0000
   8137 H(6)       67.7698   23.3040   16.5147 H         1 UNK         0.0000
   8138 H(7)       69.2236   20.9648   17.8820 H         1 UNK         0.0000
   8139 H(8)       69.5938   22.2025   16.7453 H         1 UNK         0.0000
   8140 H(9)       70.3226   22.1597   18.3375 H         1 UNK         0.0000
   8141 O(1)       62.7157   31.4057   19.4795 O.3       1 UNK         0.0000
   8142 O(2)       57.7418   27.4612   18.1527 O.2       1 UNK         0.0000
   8143 N(1)       58.3929   27.9855   20.2644 N.am      1 UNK         0.0000
   8144 C(1)       59.5002   28.8254   20.0104 C.ar      1 UNK         0.0000
   8145 C(2)       60.2230   28.8273   18.8176 C.ar      1 UNK         0.0000
   8146 C(3)       61.3007   29.6940   18.6609 C.ar      1 UNK         0.0000
   8147 C(4)       61.6710   30.5562   19.6898 C.ar      1 UNK         0.0000
   8148 C(5)       60.9676   30.5325   20.8935 C.ar      1 UNK         0.0000
   8149 C(6)       59.8898   29.6725   21.0484 C.ar      1 UNK         0.0000
   8150 C(7)       57.5855   27.3833   19.3762 C.2       1 UNK         0.0000
   8151 C(8)       56.4621   26.5818   19.9772 C.3       1 UNK         0.0000
   8152 H(1)       59.9446   28.1645   18.0076 H         1 UNK         0.0000
   8153 H(2)       61.8474   29.6833   17.7261 H         1 UNK         0.0000
   8154 H(3)       61.2606   31.1883   21.7041 H         1 UNK         0.0000
   8155 H(4)       59.3429   29.6561   21.9831 H         1 UNK         0.0000
   8156 H(5)       63.0401   31.7603   20.3163 H         1 UNK         0.0000
   8157 H(6)       58.1344   27.8905   21.2352 H         1 UNK         0.0000
   8158 H(7)       56.6805   25.5513   19.8678 H         1 UNK         0.0000
   8159 H(8)       56.3103   26.7890   21.0046 H         1 UNK         0.0000
   8160 H(9)       55.5815   26.7462   19.4124 H         1 UNK         0.0000
   8161 O(1)       67.0437   37.3918    8.9648 O.3       1 UNK         0.0000
   8162 O(2)       62.0698   41.3363    7.6380 O.2       1 UNK         0.0000
   8163 N(1)       62.7208   40.8120    9.7497 N.am      1 UNK         0.0000
   8164 C(1)       63.8281   39.9721    9.4956 C.ar      1 UNK         0.0000
   8165 C(2)       64.5510   39.9702    8.3028 C.ar      1 UNK         0.0000
   8166 C(3)       65.6286   39.1035    8.1462 C.ar      1 UNK         0.0000
   8167 C(4)       65.9990   38.2413    9.1751 C.ar      1 UNK         0.0000
   8168 C(5)       65.2956   38.2650   10.3788 C.ar      1 UNK         0.0000
   8169 C(6)       64.2178   39.1250   10.5337 C.ar      1 UNK         0.0000
   8170 C(7)       61.9135   41.4142    8.8614 C.2       1 UNK         0.0000
   8171 C(8)       60.7900   42.2157    9.4624 C.3       1 UNK         0.0000
   8172 H(1)       64.2725   40.6330    7.4929 H         1 UNK         0.0000
   8173 H(2)       66.1754   39.1142    7.2113 H         1 UNK         0.0000
   8174 H(3)       65.5886   37.6092   11.1894 H         1 UNK         0.0000
   8175 H(4)       63.6709   39.1414   11.4683 H         1 UNK         0.0000
   8176 H(5)       67.3680   37.0372    9.8016 H         1 UNK         0.0000
   8177 H(6)       62.4623   40.9070   10.7204 H         1 UNK         0.0000
   8178 H(7)       61.0085   43.2462    9.3531 H         1 UNK         0.0000
   8179 H(8)       60.6383   42.0085   10.4898 H         1 UNK         0.0000
   8180 H(9)       59.9095   42.0513    8.8976 H         1 UNK         0.0000
   8181 O(1)       56.9151   32.8053   14.7654 O.3       1 UNK         0.0000
   8182 O(2)       61.8890   36.7498   16.0922 O.2       1 UNK         0.0000
   8183 N(1)       61.2379   36.2255   13.9805 N.am      1 UNK         0.0000
   8184 C(1)       60.1306   35.3856   14.2346 C.ar      1 UNK         0.0000
   8185 C(2)       59.4078   35.3837   15.4274 C.ar      1 UNK         0.0000
   8186 C(3)       58.3301   34.5170   15.5840 C.ar      1 UNK         0.0000
   8187 C(4)       57.9598   33.6548   14.5551 C.ar      1 UNK         0.0000
   8188 C(5)       58.6631   33.6785   13.3514 C.ar      1 UNK         0.0000
   8189 C(6)       59.7410   34.5385   13.1965 C.ar      1 UNK         0.0000
   8190 C(7)       62.0453   36.8277   14.8687 C.2       1 UNK         0.0000
   8191 C(8)       63.1687   37.6292   14.2678 C.3       1 UNK         0.0000
   8192 H(1)       59.6862   36.0465   16.2373 H         1 UNK         0.0000
   8193 H(2)       57.7833   34.5277   16.5188 H         1 UNK         0.0000
   8194 H(3)       58.3702   33.0227   12.5408 H         1 UNK         0.0000
   8195 H(4)       60.2879   34.5549   12.2618 H         1 UNK         0.0000
   8196 H(5)       56.5907   32.4507   13.9286 H         1 UNK         0.0000
   8197 H(6)       61.4964   36.3205   13.0098 H         1 UNK         0.0000
   8198 H(7)       62.9503   38.6597   14.3771 H         1 UNK         0.0000
   8199 H(8)       63.3205   37.4220   13.2404 H         1 UNK         0.0000
   8200 H(9)       64.0492   37.4648   14.8326 H         1 UNK         0.0000
   8201 O(1)       61.2430   45.1652    4.2507 O.3       1 UNK         0.0000
   8202 O(2)       66.2169   41.2207    5.5774 O.2       1 UNK         0.0000
   8203 N(1)       65.5659   41.7450    3.4657 N.am      1 UNK         0.0000
   8204 C(1)       64.4586   42.5849    3.7198 C.ar      1 UNK         0.0000
   8205 C(2)       63.7357   42.5868    4.9126 C.ar      1 UNK         0.0000
   8206 C(3)       62.6581   43.4535    5.0693 C.ar      1 UNK         0.0000
   8207 C(4)       62.2877   44.3157    4.0404 C.ar      1 UNK         0.0000
   8208 C(5)       62.9911   44.2920    2.8367 C.ar      1 UNK         0.0000
   8209 C(6)       64.0689   43.4320    2.6817 C.ar      1 UNK         0.0000
   8210 C(7)       66.3732   41.1428    4.3540 C.2       1 UNK         0.0000
   8211 C(8)       67.4967   40.3413    3.7530 C.3       1 UNK         0.0000
   8212 H(1)       64.0142   41.9240    5.7226 H         1 UNK         0.0000
   8213 H(2)       62.1113   43.4428    6.0041 H         1 UNK         0.0000
   8214 H(3)       62.6981   44.9478    2.0261 H         1 UNK         0.0000
   8215 H(4)       64.6158   43.4156    1.7471 H         1 UNK         0.0000
   8216 H(5)       60.9187   45.5198    3.4139 H         1 UNK         0.0000
   8217 H(6)       65.8244   41.6500    2.4950 H         1 UNK         0.0000
   8218 H(7)       67.2782   39.3108    3.8623 H         1 UNK         0.0000
   8219 H(8)       67.6484   40.5485    2.7256 H         1 UNK         0.0000
   8220 H(9)       68.3772   40.5057    4.3178 H         1 UNK         0.0000
   8221 O(1)       60.7703   40.5787    5.4598 O.3       1 UNK         0.0000
   8222 O(2)       55.7964   36.6342    4.1331 O.2       1 UNK         0.0000
   8223 N(1)       56.4475   37.1585    6.2448 N.am      1 UNK         0.0000
   8224 C(1)       57.5548   37.9984    5.9907 C.ar      1 UNK         0.0000
   8225 C(2)       58.2776   38.0003    4.7979 C.ar      1 UNK         0.0000
   8226 C(3)       59.3553   38.8670    4.6412 C.ar      1 UNK         0.0000
   8227 C(4)       59.7256   39.7292    5.6701 C.ar      1 UNK         0.0000
   8228 C(5)       59.0223   39.7055    6.8738 C.ar      1 UNK         0.0000
   8229 C(6)       57.9444   38.8455    7.0288 C.ar      1 UNK         0.0000
   8230 C(7)       55.6401   36.5563    5.3565 C.2       1 UNK         0.0000
   8231 C(8)       54.5167   35.7548    5.9575 C.3       1 UNK         0.0000
   8232 H(1)       57.9992   37.3375    3.9879 H         1 UNK         0.0000
   8233 H(2)       59.9021   38.8563    3.7064 H         1 UNK         0.0000
   8234 H(3)       59.3152   40.3613    7.6844 H         1 UNK         0.0000
   8235 H(4)       57.3975   38.8291    7.9634 H         1 UNK         0.0000
   8236 H(5)       61.0947   40.9333    6.2966 H         1 UNK         0.0000
   8237 H(6)       56.1890   37.0635    7.2155 H         1 UNK         0.0000
   8238 H(7)       54.7351   34.7243    5.8482 H         1 UNK         0.0000
   8239 H(8)       54.3649   35.9620    6.9849 H         1 UNK         0.0000
   8240 H(9)       53.6361   35.9192    5.3927 H         1 UNK         0.0000
   8241 O(1)       68.0164   37.3918   15.9746 O.3       1 UNK         0.0000
   8242 O(2)       63.0425   41.3363   14.6478 O.2       1 UNK         0.0000
   8243 N(1)       63.6935   40.8120   16.7595 N.am      1 UNK         0.0000
   8244 C(1)       64.8008   39.9721   16.5055 C.ar      1 UNK         0.0000
   8245 C(2)       65.5237   39.9702   15.3126 C.ar      1 UNK         0.0000
   8246 C(3)       66.6013   39.1035   15.1560 C.ar      1 UNK         0.0000
   8247 C(4)       66.9716   38.2413   16.1849 C.ar      1 UNK         0.0000
   8248 C(5)       66.2683   38.2650   17.3886 C.ar      1 UNK         0.0000
   8249 C(6)       65.1905   39.1250   17.5435 C.ar      1 UNK         0.0000
   8250 C(7)       62.8862   41.4142   15.8713 C.2       1 UNK         0.0000
   8251 C(8)       61.7627   42.2157   16.4723 C.3       1 UNK         0.0000
   8252 H(1)       65.2452   40.6330   14.5027 H         1 UNK         0.0000
   8253 H(2)       67.1481   39.1142   14.2212 H         1 UNK         0.0000
   8254 H(3)       66.5613   37.6092   18.1992 H         1 UNK         0.0000
   8255 H(4)       64.6436   39.1414   18.4782 H         1 UNK         0.0000
   8256 H(5)       68.3407   37.0372   16.8114 H         1 UNK         0.0000
   8257 H(6)       63.4350   40.9070   17.7302 H         1 UNK         0.0000
   8258 H(7)       61.9812   43.2462   16.3629 H         1 UNK         0.0000
   8259 H(8)       61.6109   42.0085   17.4996 H         1 UNK         0.0000
   8260 H(9)       60.8822   42.0513   15.9074 H         1 UNK         0.0000
   8261 O(1)       69.4618   32.8053   21.7753 O.3       1 UNK         0.0000
   8262 O(2)       74.4357   36.7498   23.1020 O.2       1 UNK         0.0000
   8263 N(1)       73.7846   36.2255   20.9903 N.am      1 UNK         0.0000
   8264 C(1)       72.6773   35.3856   21.2444 C.ar      1 UNK         0.0000
   8265 C(2)       71.9545   35.3837   22.4372 C.ar      1 UNK         0.0000
   8266 C(3)       70.8768   34.5170   22.5939 C.ar      1 UNK         0.0000
   8267 C(4)       70.5065   33.6548   21.5650 C.ar      1 UNK         0.0000
   8268 C(5)       71.2098   33.6785   20.3613 C.ar      1 UNK         0.0000
   8269 C(6)       72.2876   34.5385   20.2063 C.ar      1 UNK         0.0000
   8270 C(7)       74.5920   36.8277   21.8786 C.2       1 UNK         0.0000
   8271 C(8)       75.7154   37.6292   21.2776 C.3       1 UNK         0.0000
   8272 H(1)       72.2329   36.0465   23.2472 H         1 UNK         0.0000
   8273 H(2)       70.3300   34.5277   23.5287 H         1 UNK         0.0000
   8274 H(3)       70.9169   33.0227   19.5507 H         1 UNK         0.0000
   8275 H(4)       72.8346   34.5549   19.2717 H         1 UNK         0.0000
   8276 H(5)       69.1374   32.4507   20.9385 H         1 UNK         0.0000
   8277 H(6)       74.0431   36.3205   20.0196 H         1 UNK         0.0000
   8278 H(7)       75.4970   38.6597   21.3869 H         1 UNK         0.0000
   8279 H(8)       75.8672   37.4220   20.2502 H         1 UNK         0.0000
   8280 H(9)       76.5959   37.4648   21.8424 H         1 UNK         0.0000
   8281 O(1)       62.2157   45.1652   11.2605 O.3       1 UNK         0.0000
   8282 O(2)       67.1896   41.2207   12.5873 O.2       1 UNK         0.0000
   8283 N(1)       66.5386   41.7450   10.4756 N.am      1 UNK         0.0000
   8284 C(1)       65.4312   42.5849   10.7296 C.ar      1 UNK         0.0000
   8285 C(2)       64.7084   42.5868   11.9225 C.ar      1 UNK         0.0000
   8286 C(3)       63.6307   43.4535   12.0791 C.ar      1 UNK         0.0000
   8287 C(4)       63.2604   44.3157   11.0502 C.ar      1 UNK         0.0000
   8288 C(5)       63.9638   44.2920    9.8465 C.ar      1 UNK         0.0000
   8289 C(6)       65.0416   43.4320    9.6916 C.ar      1 UNK         0.0000
   8290 C(7)       67.3459   41.1428   11.3638 C.2       1 UNK         0.0000
   8291 C(8)       68.4694   40.3413   10.7628 C.3       1 UNK         0.0000
   8292 H(1)       64.9869   41.9240   12.7324 H         1 UNK         0.0000
   8293 H(2)       63.0840   43.4428   13.0139 H         1 UNK         0.0000
   8294 H(3)       63.6708   44.9478    9.0359 H         1 UNK         0.0000
   8295 H(4)       65.5885   43.4156    8.7569 H         1 UNK         0.0000
   8296 H(5)       61.8914   45.5198   10.4237 H         1 UNK         0.0000
   8297 H(6)       66.7971   41.6500    9.5049 H         1 UNK         0.0000
   8298 H(7)       68.2509   39.3108   10.8722 H         1 UNK         0.0000
   8299 H(8)       68.6211   40.5485    9.7355 H         1 UNK         0.0000
   8300 H(9)       69.3499   40.5057   11.3277 H         1 UNK         0.0000
   8301 O(1)       73.3170   40.5787   12.4697 O.3       1 UNK         0.0000
   8302 O(2)       68.3431   36.6342   11.1429 O.2       1 UNK         0.0000
   8303 N(1)       68.9942   37.1585   13.2546 N.am      1 UNK         0.0000
   8304 C(1)       70.1015   37.9984   13.0005 C.ar      1 UNK         0.0000
   8305 C(2)       70.8243   38.0003   11.8077 C.ar      1 UNK         0.0000
   8306 C(3)       71.9020   38.8670   11.6511 C.ar      1 UNK         0.0000
   8307 C(4)       72.2723   39.7292   12.6800 C.ar      1 UNK         0.0000
   8308 C(5)       71.5690   39.7055   13.8837 C.ar      1 UNK         0.0000
   8309 C(6)       70.4911   38.8455   14.0386 C.ar      1 UNK         0.0000
   8310 C(7)       68.1868   36.5563   12.3664 C.2       1 UNK         0.0000
   8311 C(8)       67.0634   35.7548   12.9673 C.3       1 UNK         0.0000
   8312 H(1)       70.5459   37.3375   10.9978 H         1 UNK         0.0000
   8313 H(2)       72.4488   38.8563   10.7162 H         1 UNK         0.0000
   8314 H(3)       71.8619   40.3613   14.6943 H         1 UNK         0.0000
   8315 H(4)       69.9442   38.8291   14.9733 H         1 UNK         0.0000
   8316 H(5)       73.6414   40.9333   13.3065 H         1 UNK         0.0000
   8317 H(6)       68.7357   37.0635   14.2253 H         1 UNK         0.0000
   8318 H(7)       67.2818   34.7243   12.8580 H         1 UNK         0.0000
   8319 H(8)       66.9116   35.9620   13.9947 H         1 UNK         0.0000
   8320 H(9)       66.1828   35.9192   12.4025 H         1 UNK         0.0000
   8321 O(1)       68.9891   37.3918    1.7534 O.3       1 UNK         0.0000
   8322 O(2)       64.0152   41.3363    0.4267 O.2       1 UNK         0.0000
   8323 N(1)       64.6662   40.8120    2.5384 N.am      1 UNK         0.0000
   8324 C(1)       65.7735   39.9721    2.2843 C.ar      1 UNK         0.0000
   8325 C(2)       66.4964   39.9702    1.0915 C.ar      1 UNK         0.0000
   8326 C(3)       67.5740   39.1035    0.9348 C.ar      1 UNK         0.0000
   8327 C(4)       67.9443   38.2413    1.9637 C.ar      1 UNK         0.0000
   8328 C(5)       67.2410   38.2650    3.1674 C.ar      1 UNK         0.0000
   8329 C(6)       66.1632   39.1250    3.3223 C.ar      1 UNK         0.0000
   8330 C(7)       63.8589   41.4142    1.6501 C.2       1 UNK         0.0000
   8331 C(8)       62.7354   42.2157    2.2511 C.3       1 UNK         0.0000
   8332 H(1)       66.2179   40.6330    0.2815 H         1 UNK         0.0000
   8333 H(2)       68.1208   39.1142    0.0000 H         1 UNK         0.0000
   8334 H(3)       67.5339   37.6092    3.9780 H         1 UNK         0.0000
   8335 H(4)       65.6163   39.1414    4.2570 H         1 UNK         0.0000
   8336 H(5)       69.3134   37.0372    2.5902 H         1 UNK         0.0000
   8337 H(6)       64.4077   40.9070    3.5091 H         1 UNK         0.0000
   8338 H(7)       62.9539   43.2462    2.1418 H         1 UNK         0.0000
   8339 H(8)       62.5836   42.0085    3.2785 H         1 UNK         0.0000
   8340 H(9)       61.8549   42.0513    1.6863 H         1 UNK         0.0000
   8341 O(1)       55.9424   32.8053    7.7556 O.3       1 UNK         0.0000
   8342 O(2)       60.9163   36.7498    9.0824 O.2       1 UNK         0.0000
   8343 N(1)       60.2652   36.2255    6.9707 N.am      1 UNK         0.0000
   8344 C(1)       59.1579   35.3856    7.2247 C.ar      1 UNK         0.0000
   8345 C(2)       58.4351   35.3837    8.4175 C.ar      1 UNK         0.0000
   8346 C(3)       57.3574   34.5170    8.5742 C.ar      1 UNK         0.0000
   8347 C(4)       56.9871   33.6548    7.5453 C.ar      1 UNK         0.0000
   8348 C(5)       57.6904   33.6785    6.3416 C.ar      1 UNK         0.0000
   8349 C(6)       58.7683   34.5385    6.1867 C.ar      1 UNK         0.0000
   8350 C(7)       61.0726   36.8277    7.8589 C.2       1 UNK         0.0000
   8351 C(8)       62.1960   37.6292    7.2579 C.3       1 UNK         0.0000
   8352 H(1)       58.7135   36.0465    9.2275 H         1 UNK         0.0000
   8353 H(2)       56.8106   34.5277    9.5090 H         1 UNK         0.0000
   8354 H(3)       57.3975   33.0227    5.5310 H         1 UNK         0.0000
   8355 H(4)       59.3152   34.5549    5.2520 H         1 UNK         0.0000
   8356 H(5)       55.6180   32.4507    6.9188 H         1 UNK         0.0000
   8357 H(6)       60.5237   36.3205    5.9999 H         1 UNK         0.0000
   8358 H(7)       61.9776   38.6597    7.3672 H         1 UNK         0.0000
   8359 H(8)       62.3478   37.4220    6.2305 H         1 UNK         0.0000
   8360 H(9)       63.0766   37.4648    7.8227 H         1 UNK         0.0000
   8361 O(1)       63.1884   35.9922   18.2703 O.3       1 UNK         0.0000
   8362 O(2)       68.1623   32.0477   19.5971 O.2       1 UNK         0.0000
   8363 N(1)       67.5113   32.5720   17.4854 N.am      1 UNK         0.0000
   8364 C(1)       66.4039   33.4119   17.7395 C.ar      1 UNK         0.0000
   8365 C(2)       65.6811   33.4138   18.9323 C.ar      1 UNK         0.0000
   8366 C(3)       64.6034   34.2805   19.0889 C.ar      1 UNK         0.0000
   8367 C(4)       64.2331   35.1427   18.0600 C.ar      1 UNK         0.0000
   8368 C(5)       64.9365   35.1190   16.8563 C.ar      1 UNK         0.0000
   8369 C(6)       66.0143   34.2590   16.7014 C.ar      1 UNK         0.0000
   8370 C(7)       68.3186   31.9698   18.3737 C.2       1 UNK         0.0000
   8371 C(8)       69.4421   31.1683   17.7727 C.3       1 UNK         0.0000
   8372 H(1)       65.9596   32.7510   19.7422 H         1 UNK         0.0000
   8373 H(2)       64.0567   34.2698   20.0238 H         1 UNK         0.0000
   8374 H(3)       64.6435   35.7748   16.0457 H         1 UNK         0.0000
   8375 H(4)       66.5612   34.2426   15.7668 H         1 UNK         0.0000
   8376 H(5)       62.8641   36.3468   17.4335 H         1 UNK         0.0000
   8377 H(6)       67.7698   32.4770   16.5147 H         1 UNK         0.0000
   8378 H(7)       69.2236   30.1378   17.8820 H         1 UNK         0.0000
   8379 H(8)       69.5938   31.3755   16.7453 H         1 UNK         0.0000
   8380 H(9)       70.3226   31.3327   18.3375 H         1 UNK         0.0000
   8381 O(1)       62.7157   40.5787   19.4795 O.3       1 UNK         0.0000
   8382 O(2)       57.7418   36.6342   18.1527 O.2       1 UNK         0.0000
   8383 N(1)       58.3929   37.1585   20.2644 N.am      1 UNK         0.0000
   8384 C(1)       59.5002   37.9984   20.0104 C.ar      1 UNK         0.0000
   8385 C(2)       60.2230   38.0003   18.8176 C.ar      1 UNK         0.0000
   8386 C(3)       61.3007   38.8670   18.6609 C.ar      1 UNK         0.0000
   8387 C(4)       61.6710   39.7292   19.6898 C.ar      1 UNK         0.0000
   8388 C(5)       60.9676   39.7055   20.8935 C.ar      1 UNK         0.0000
   8389 C(6)       59.8898   38.8455   21.0484 C.ar      1 UNK         0.0000
   8390 C(7)       57.5855   36.5563   19.3762 C.2       1 UNK         0.0000
   8391 C(8)       56.4621   35.7548   19.9772 C.3       1 UNK         0.0000
   8392 H(1)       59.9446   37.3375   18.0076 H         1 UNK         0.0000
   8393 H(2)       61.8474   38.8563   17.7261 H         1 UNK         0.0000
   8394 H(3)       61.2606   40.3613   21.7041 H         1 UNK         0.0000
   8395 H(4)       59.3429   38.8291   21.9831 H         1 UNK         0.0000
   8396 H(5)       63.0401   40.9333   20.3163 H         1 UNK         0.0000
   8397 H(6)       58.1344   37.0635   21.2352 H         1 UNK         0.0000
   8398 H(7)       56.6805   34.7243   19.8678 H         1 UNK         0.0000
   8399 H(8)       56.3103   35.9620   21.0046 H         1 UNK         0.0000
   8400 H(9)       55.5815   35.9192   19.4124 H         1 UNK         0.0000
   8401 O(1)       67.0437   46.5648    8.9648 O.3       1 UNK         0.0000
   8402 O(2)       62.0698   50.5093    7.6380 O.2       1 UNK         0.0000
   8403 N(1)       62.7208   49.9850    9.7497 N.am      1 UNK         0.0000
   8404 C(1)       63.8281   49.1451    9.4956 C.ar      1 UNK         0.0000
   8405 C(2)       64.5510   49.1432    8.3028 C.ar      1 UNK         0.0000
   8406 C(3)       65.6286   48.2765    8.1462 C.ar      1 UNK         0.0000
   8407 C(4)       65.9990   47.4143    9.1751 C.ar      1 UNK         0.0000
   8408 C(5)       65.2956   47.4380   10.3788 C.ar      1 UNK         0.0000
   8409 C(6)       64.2178   48.2980   10.5337 C.ar      1 UNK         0.0000
   8410 C(7)       61.9135   50.5872    8.8614 C.2       1 UNK         0.0000
   8411 C(8)       60.7900   51.3887    9.4624 C.3       1 UNK         0.0000
   8412 H(1)       64.2725   49.8060    7.4929 H         1 UNK         0.0000
   8413 H(2)       66.1754   48.2872    7.2113 H         1 UNK         0.0000
   8414 H(3)       65.5886   46.7822   11.1894 H         1 UNK         0.0000
   8415 H(4)       63.6709   48.3144   11.4683 H         1 UNK         0.0000
   8416 H(5)       67.3680   46.2102    9.8016 H         1 UNK         0.0000
   8417 H(6)       62.4623   50.0801   10.7204 H         1 UNK         0.0000
   8418 H(7)       61.0085   52.4192    9.3531 H         1 UNK         0.0000
   8419 H(8)       60.6383   51.1815   10.4898 H         1 UNK         0.0000
   8420 H(9)       59.9095   51.2243    8.8976 H         1 UNK         0.0000
   8421 O(1)       56.9151   41.9783   14.7654 O.3       1 UNK         0.0000
   8422 O(2)       61.8890   45.9228   16.0922 O.2       1 UNK         0.0000
   8423 N(1)       61.2379   45.3985   13.9805 N.am      1 UNK         0.0000
   8424 C(1)       60.1306   44.5586   14.2346 C.ar      1 UNK         0.0000
   8425 C(2)       59.4078   44.5567   15.4274 C.ar      1 UNK         0.0000
   8426 C(3)       58.3301   43.6900   15.5840 C.ar      1 UNK         0.0000
   8427 C(4)       57.9598   42.8278   14.5551 C.ar      1 UNK         0.0000
   8428 C(5)       58.6631   42.8515   13.3514 C.ar      1 UNK         0.0000
   8429 C(6)       59.7410   43.7115   13.1965 C.ar      1 UNK         0.0000
   8430 C(7)       62.0453   46.0007   14.8687 C.2       1 UNK         0.0000
   8431 C(8)       63.1687   46.8022   14.2678 C.3       1 UNK         0.0000
   8432 H(1)       59.6862   45.2195   16.2373 H         1 UNK         0.0000
   8433 H(2)       57.7833   43.7007   16.5188 H         1 UNK         0.0000
   8434 H(3)       58.3702   42.1957   12.5408 H         1 UNK         0.0000
   8435 H(4)       60.2879   43.7279   12.2618 H         1 UNK         0.0000
   8436 H(5)       56.5907   41.6237   13.9286 H         1 UNK         0.0000
   8437 H(6)       61.4964   45.4936   13.0098 H         1 UNK         0.0000
   8438 H(7)       62.9503   47.8327   14.3771 H         1 UNK         0.0000
   8439 H(8)       63.3205   46.5950   13.2404 H         1 UNK         0.0000
   8440 H(9)       64.0492   46.6378   14.8326 H         1 UNK         0.0000
   8441 O(1)       61.2430   54.3382    4.2507 O.3       1 UNK         0.0000
   8442 O(2)       66.2169   50.3937    5.5774 O.2       1 UNK         0.0000
   8443 N(1)       65.5659   50.9180    3.4657 N.am      1 UNK         0.0000
   8444 C(1)       64.4586   51.7579    3.7198 C.ar      1 UNK         0.0000
   8445 C(2)       63.7357   51.7598    4.9126 C.ar      1 UNK         0.0000
   8446 C(3)       62.6581   52.6265    5.0693 C.ar      1 UNK         0.0000
   8447 C(4)       62.2877   53.4887    4.0404 C.ar      1 UNK         0.0000
   8448 C(5)       62.9911   53.4650    2.8367 C.ar      1 UNK         0.0000
   8449 C(6)       64.0689   52.6050    2.6817 C.ar      1 UNK         0.0000
   8450 C(7)       66.3732   50.3158    4.3540 C.2       1 UNK         0.0000
   8451 C(8)       67.4967   49.5143    3.7530 C.3       1 UNK         0.0000
   8452 H(1)       64.0142   51.0970    5.7226 H         1 UNK         0.0000
   8453 H(2)       62.1113   52.6158    6.0041 H         1 UNK         0.0000
   8454 H(3)       62.6981   54.1208    2.0261 H         1 UNK         0.0000
   8455 H(4)       64.6158   52.5886    1.7471 H         1 UNK         0.0000
   8456 H(5)       60.9187   54.6928    3.4139 H         1 UNK         0.0000
   8457 H(6)       65.8244   50.8230    2.4950 H         1 UNK         0.0000
   8458 H(7)       67.2782   48.4838    3.8623 H         1 UNK         0.0000
   8459 H(8)       67.6484   49.7215    2.7256 H         1 UNK         0.0000
   8460 H(9)       68.3772   49.6787    4.3178 H         1 UNK         0.0000
   8461 O(1)       60.7703   49.7517    5.4598 O.3       1 UNK         0.0000
   8462 O(2)       55.7964   45.8072    4.1331 O.2       1 UNK         0.0000
   8463 N(1)       56.4475   46.3315    6.2448 N.am      1 UNK         0.0000
   8464 C(1)       57.5548   47.1714    5.9907 C.ar      1 UNK         0.0000
   8465 C(2)       58.2776   47.1733    4.7979 C.ar      1 UNK         0.0000
   8466 C(3)       59.3553   48.0400    4.6412 C.ar      1 UNK         0.0000
   8467 C(4)       59.7256   48.9022    5.6701 C.ar      1 UNK         0.0000
   8468 C(5)       59.0223   48.8785    6.8738 C.ar      1 UNK         0.0000
   8469 C(6)       57.9444   48.0185    7.0288 C.ar      1 UNK         0.0000
   8470 C(7)       55.6401   45.7293    5.3565 C.2       1 UNK         0.0000
   8471 C(8)       54.5167   44.9278    5.9575 C.3       1 UNK         0.0000
   8472 H(1)       57.9992   46.5105    3.9879 H         1 UNK         0.0000
   8473 H(2)       59.9021   48.0293    3.7064 H         1 UNK         0.0000
   8474 H(3)       59.3152   49.5343    7.6844 H         1 UNK         0.0000
   8475 H(4)       57.3975   48.0021    7.9634 H         1 UNK         0.0000
   8476 H(5)       61.0947   50.1063    6.2966 H         1 UNK         0.0000
   8477 H(6)       56.1890   46.2365    7.2155 H         1 UNK         0.0000
   8478 H(7)       54.7351   43.8973    5.8482 H         1 UNK         0.0000
   8479 H(8)       54.3649   45.1350    6.9849 H         1 UNK         0.0000
   8480 H(9)       53.6361   45.0922    5.3927 H         1 UNK         0.0000
   8481 O(1)       68.0164   46.5648   15.9746 O.3       1 UNK         0.0000
   8482 O(2)       63.0425   50.5093   14.6478 O.2       1 UNK         0.0000
   8483 N(1)       63.6935   49.9850   16.7595 N.am      1 UNK         0.0000
   8484 C(1)       64.8008   49.1451   16.5055 C.ar      1 UNK         0.0000
   8485 C(2)       65.5237   49.1432   15.3126 C.ar      1 UNK         0.0000
   8486 C(3)       66.6013   48.2765   15.1560 C.ar      1 UNK         0.0000
   8487 C(4)       66.9716   47.4143   16.1849 C.ar      1 UNK         0.0000
   8488 C(5)       66.2683   47.4380   17.3886 C.ar      1 UNK         0.0000
   8489 C(6)       65.1905   48.2980   17.5435 C.ar      1 UNK         0.0000
   8490 C(7)       62.8862   50.5872   15.8713 C.2       1 UNK         0.0000
   8491 C(8)       61.7627   51.3887   16.4723 C.3       1 UNK         0.0000
   8492 H(1)       65.2452   49.8060   14.5027 H         1 UNK         0.0000
   8493 H(2)       67.1481   48.2872   14.2212 H         1 UNK         0.0000
   8494 H(3)       66.5613   46.7822   18.1992 H         1 UNK         0.0000
   8495 H(4)       64.6436   48.3144   18.4782 H         1 UNK         0.0000
   8496 H(5)       68.3407   46.2102   16.8114 H         1 UNK         0.0000
   8497 H(6)       63.4350   50.0801   17.7302 H         1 UNK         0.0000
   8498 H(7)       61.9812   52.4192   16.3629 H         1 UNK         0.0000
   8499 H(8)       61.6109   51.1815   17.4996 H         1 UNK         0.0000
   8500 H(9)       60.8822   51.2243   15.9074 H         1 UNK         0.0000
   8501 O(1)       69.4618   41.9783   21.7753 O.3       1 UNK         0.0000
   8502 O(2)       74.4357   45.9228   23.1020 O.2       1 UNK         0.0000
   8503 N(1)       73.7846   45.3985   20.9903 N.am      1 UNK         0.0000
   8504 C(1)       72.6773   44.5586   21.2444 C.ar      1 UNK         0.0000
   8505 C(2)       71.9545   44.5567   22.4372 C.ar      1 UNK         0.0000
   8506 C(3)       70.8768   43.6900   22.5939 C.ar      1 UNK         0.0000
   8507 C(4)       70.5065   42.8278   21.5650 C.ar      1 UNK         0.0000
   8508 C(5)       71.2098   42.8515   20.3613 C.ar      1 UNK         0.0000
   8509 C(6)       72.2876   43.7115   20.2063 C.ar      1 UNK         0.0000
   8510 C(7)       74.5920   46.0007   21.8786 C.2       1 UNK         0.0000
   8511 C(8)       75.7154   46.8022   21.2776 C.3       1 UNK         0.0000
   8512 H(1)       72.2329   45.2195   23.2472 H         1 UNK         0.0000
   8513 H(2)       70.3300   43.7007   23.5287 H         1 UNK         0.0000
   8514 H(3)       70.9169   42.1957   19.5507 H         1 UNK         0.0000
   8515 H(4)       72.8346   43.7279   19.2717 H         1 UNK         0.0000
   8516 H(5)       69.1374   41.6237   20.9385 H         1 UNK         0.0000
   8517 H(6)       74.0431   45.4936   20.0196 H         1 UNK         0.0000
   8518 H(7)       75.4970   47.8327   21.3869 H         1 UNK         0.0000
   8519 H(8)       75.8672   46.5950   20.2502 H         1 UNK         0.0000
   8520 H(9)       76.5959   46.6378   21.8424 H         1 UNK         0.0000
   8521 O(1)       62.2157   54.3382   11.2605 O.3       1 UNK         0.0000
   8522 O(2)       67.1896   50.3937   12.5873 O.2       1 UNK         0.0000
   8523 N(1)       66.5386   50.9180   10.4756 N.am      1 UNK         0.0000
   8524 C(1)       65.4312   51.7579   10.7296 C.ar      1 UNK         0.0000
   8525 C(2)       64.7084   51.7598   11.9225 C.ar      1 UNK         0.0000
   8526 C(3)       63.6307   52.6265   12.0791 C.ar      1 UNK         0.0000
   8527 C(4)       63.2604   53.4887   11.0502 C.ar      1 UNK         0.0000
   8528 C(5)       63.9638   53.4650    9.8465 C.ar      1 UNK         0.0000
   8529 C(6)       65.0416   52.6050    9.6916 C.ar      1 UNK         0.0000
   8530 C(7)       67.3459   50.3158   11.3638 C.2       1 UNK         0.0000
   8531 C(8)       68.4694   49.5143   10.7628 C.3       1 UNK         0.0000
   8532 H(1)       64.9869   51.0970   12.7324 H         1 UNK         0.0000
   8533 H(2)       63.0840   52.6158   13.0139 H         1 UNK         0.0000
   8534 H(3)       63.6708   54.1208    9.0359 H         1 UNK         0.0000
   8535 H(4)       65.5885   52.5886    8.7569 H         1 UNK         0.0000
   8536 H(5)       61.8914   54.6928   10.4237 H         1 UNK         0.0000
   8537 H(6)       66.7971   50.8230    9.5049 H         1 UNK         0.0000
   8538 H(7)       68.2509   48.4838   10.8722 H         1 UNK         0.0000
   8539 H(8)       68.6211   49.7215    9.7355 H         1 UNK         0.0000
   8540 H(9)       69.3499   49.6787   11.3277 H         1 UNK         0.0000
   8541 O(1)       73.3170   49.7517   12.4697 O.3       1 UNK         0.0000
   8542 O(2)       68.3431   45.8072   11.1429 O.2       1 UNK         0.0000
   8543 N(1)       68.9942   46.3315   13.2546 N.am      1 UNK         0.0000
   8544 C(1)       70.1015   47.1714   13.0005 C.ar      1 UNK         0.0000
   8545 C(2)       70.8243   47.1733   11.8077 C.ar      1 UNK         0.0000
   8546 C(3)       71.9020   48.0400   11.6511 C.ar      1 UNK         0.0000
   8547 C(4)       72.2723   48.9022   12.6800 C.ar      1 UNK         0.0000
   8548 C(5)       71.5690   48.8785   13.8837 C.ar      1 UNK         0.0000
   8549 C(6)       70.4911   48.0185   14.0386 C.ar      1 UNK         0.0000
   8550 C(7)       68.1868   45.7293   12.3664 C.2       1 UNK         0.0000
   8551 C(8)       67.0634   44.9278   12.9673 C.3       1 UNK         0.0000
   8552 H(1)       70.5459   46.5105   10.9978 H         1 UNK         0.0000
   8553 H(2)       72.4488   48.0293   10.7162 H         1 UNK         0.0000
   8554 H(3)       71.8619   49.5343   14.6943 H         1 UNK         0.0000
   8555 H(4)       69.9442   48.0021   14.9733 H         1 UNK         0.0000
   8556 H(5)       73.6414   50.1063   13.3065 H         1 UNK         0.0000
   8557 H(6)       68.7357   46.2365   14.2253 H         1 UNK         0.0000
   8558 H(7)       67.2818   43.8973   12.8580 H         1 UNK         0.0000
   8559 H(8)       66.9116   45.1350   13.9947 H         1 UNK         0.0000
   8560 H(9)       66.1828   45.0922   12.4025 H         1 UNK         0.0000
   8561 O(1)       68.9891   46.5648    1.7534 O.3       1 UNK         0.0000
   8562 O(2)       64.0152   50.5093    0.4267 O.2       1 UNK         0.0000
   8563 N(1)       64.6662   49.9850    2.5384 N.am      1 UNK         0.0000
   8564 C(1)       65.7735   49.1451    2.2843 C.ar      1 UNK         0.0000
   8565 C(2)       66.4964   49.1432    1.0915 C.ar      1 UNK         0.0000
   8566 C(3)       67.5740   48.2765    0.9348 C.ar      1 UNK         0.0000
   8567 C(4)       67.9443   47.4143    1.9637 C.ar      1 UNK         0.0000
   8568 C(5)       67.2410   47.4380    3.1674 C.ar      1 UNK         0.0000
   8569 C(6)       66.1632   48.2980    3.3223 C.ar      1 UNK         0.0000
   8570 C(7)       63.8589   50.5872    1.6501 C.2       1 UNK         0.0000
   8571 C(8)       62.7354   51.3887    2.2511 C.3       1 UNK         0.0000
   8572 H(1)       66.2179   49.8060    0.2815 H         1 UNK         0.0000
   8573 H(2)       68.1208   48.2872    0.0000 H         1 UNK         0.0000
   8574 H(3)       67.5339   46.7822    3.9780 H         1 UNK         0.0000
   8575 H(4)       65.6163   48.3144    4.2570 H         1 UNK         0.0000
   8576 H(5)       69.3134   46.2102    2.5902 H         1 UNK         0.0000
   8577 H(6)       64.4077   50.0801    3.5091 H         1 UNK         0.0000
   8578 H(7)       62.9539   52.4192    2.1418 H         1 UNK         0.0000
   8579 H(8)       62.5836   51.1815    3.2785 H         1 UNK         0.0000
   8580 H(9)       61.8549   51.2243    1.6863 H         1 UNK         0.0000
   8581 O(1)       55.9424   41.9783    7.7556 O.3       1 UNK         0.0000
   8582 O(2)       60.9163   45.9228    9.0824 O.2       1 UNK         0.0000
   8583 N(1)       60.2652   45.3985    6.9707 N.am      1 UNK         0.0000
   8584 C(1)       59.1579   44.5586    7.2247 C.ar      1 UNK         0.0000
   8585 C(2)       58.4351   44.5567    8.4175 C.ar      1 UNK         0.0000
   8586 C(3)       57.3574   43.6900    8.5742 C.ar      1 UNK         0.0000
   8587 C(4)       56.9871   42.8278    7.5453 C.ar      1 UNK         0.0000
   8588 C(5)       57.6904   42.8515    6.3416 C.ar      1 UNK         0.0000
   8589 C(6)       58.7683   43.7115    6.1867 C.ar      1 UNK         0.0000
   8590 C(7)       61.0726   46.0007    7.8589 C.2       1 UNK         0.0000
   8591 C(8)       62.1960   46.8022    7.2579 C.3       1 UNK         0.0000
   8592 H(1)       58.7135   45.2195    9.2275 H         1 UNK         0.0000
   8593 H(2)       56.8106   43.7007    9.5090 H         1 UNK         0.0000
   8594 H(3)       57.3975   42.1957    5.5310 H         1 UNK         0.0000
   8595 H(4)       59.3152   43.7279    5.2520 H         1 UNK         0.0000
   8596 H(5)       55.6180   41.6237    6.9188 H         1 UNK         0.0000
   8597 H(6)       60.5237   45.4936    5.9999 H         1 UNK         0.0000
   8598 H(7)       61.9776   47.8327    7.3672 H         1 UNK         0.0000
   8599 H(8)       62.3478   46.5950    6.2305 H         1 UNK         0.0000
   8600 H(9)       63.0766   46.6378    7.8227 H         1 UNK         0.0000
   8601 O(1)       63.1884   45.1652   18.2703 O.3       1 UNK         0.0000
   8602 O(2)       68.1623   41.2207   19.5971 O.2       1 UNK         0.0000
   8603 N(1)       67.5113   41.7450   17.4854 N.am      1 UNK         0.0000
   8604 C(1)       66.4039   42.5849   17.7395 C.ar      1 UNK         0.0000
   8605 C(2)       65.6811   42.5868   18.9323 C.ar      1 UNK         0.0000
   8606 C(3)       64.6034   43.4535   19.0889 C.ar      1 UNK         0.0000
   8607 C(4)       64.2331   44.3157   18.0600 C.ar      1 UNK         0.0000
   8608 C(5)       64.9365   44.2920   16.8563 C.ar      1 UNK         0.0000
   8609 C(6)       66.0143   43.4320   16.7014 C.ar      1 UNK         0.0000
   8610 C(7)       68.3186   41.1428   18.3737 C.2       1 UNK         0.0000
   8611 C(8)       69.4421   40.3413   17.7727 C.3       1 UNK         0.0000
   8612 H(1)       65.9596   41.9240   19.7422 H         1 UNK         0.0000
   8613 H(2)       64.0567   43.4428   20.0238 H         1 UNK         0.0000
   8614 H(3)       64.6435   44.9478   16.0457 H         1 UNK         0.0000
   8615 H(4)       66.5612   43.4156   15.7668 H         1 UNK         0.0000
   8616 H(5)       62.8641   45.5198   17.4335 H         1 UNK         0.0000
   8617 H(6)       67.7698   41.6500   16.5147 H         1 UNK         0.0000
   8618 H(7)       69.2236   39.3108   17.8820 H         1 UNK         0.0000
   8619 H(8)       69.5938   40.5485   16.7453 H         1 UNK         0.0000
   8620 H(9)       70.3226   40.5057   18.3375 H         1 UNK         0.0000
   8621 O(1)       62.7157   49.7517   19.4795 O.3       1 UNK         0.0000
   8622 O(2)       57.7418   45.8072   18.1527 O.2       1 UNK         0.0000
   8623 N(1)       58.3929   46.3315   20.2644 N.am      1 UNK         0.0000
   8624 C(1)       59.5002   47.1714   20.0104 C.ar      1 UNK         0.0000
   8625 C(2)       60.2230   47.1733   18.8176 C.ar      1 UNK         0.0000
   8626 C(3)       61.3007   48.0400   18.6609 C.ar      1 UNK         0.0000
   8627 C(4)       61.6710   48.9022   19.6898 C.ar      1 UNK         0.0000
   8628 C(5)       60.9676   48.8785   20.8935 C.ar      1 UNK         0.0000
   8629 C(6)       59.8898   48.0185   21.0484 C.ar      1 UNK         0.0000
   8630 C(7)       57.5855   45.7293   19.3762 C.2       1 UNK         0.0000
   8631 C(8)       56.4621   44.9278   19.9772 C.3       1 UNK         0.0000
   8632 H(1)       59.9446   46.5105   18.0076 H         1 UNK         0.0000
   8633 H(2)       61.8474   48.0293   17.7261 H         1 UNK         0.0000
   8634 H(3)       61.2606   49.5343   21.7041 H         1 UNK         0.0000
   8635 H(4)       59.3429   48.0021   21.9831 H         1 UNK         0.0000
   8636 H(5)       63.0401   50.1063   20.3163 H         1 UNK         0.0000
   8637 H(6)       58.1344   46.2365   21.2352 H         1 UNK         0.0000
   8638 H(7)       56.6805   43.8973   19.8678 H         1 UNK         0.0000
   8639 H(8)       56.3103   45.1350   21.0046 H         1 UNK         0.0000
   8640 H(9)       55.5815   45.0922   19.4124 H         1 UNK         0.0000
@<TRIPOS>BOND
     1    1   16 1
     2    1    7 1
     3    2   10 2
     4    3   17 1
     5    3   10 am   BACKBONE|DICT|INTERRES
     6    3    4 1
     7    4    5 ar
     8    4    9 ar
     9    5   12 1
    10    5    6 ar
    11    6    7 ar
    12    6   13 1
    13    7    8 ar
    14    8    9 ar
    15    8   14 1
    16    9   15 1
    17   10   11 1
    18   11   19 1
    19   11   18 1
    20   11   20 1
    21   21   36 1
    22   21   27 1
    23   22   30 2
    24   23   24 1
    25   23   37 1
    26   23   30 am   BACKBONE|DICT|INTERRES
    27   24   25 ar
    28   24   29 ar
    29   25   26 ar
    30   25   32 1
    31   26   33 1
    32   26   27 ar
    33   27   28 ar
    34   28   34 1
    35   28   29 ar
    36   29   35 1
    37   30   31 1
    38   31   39 1
    39   31   38 1
    40   31   40 1
    41   41   56 1
    42   41   47 1
    43   42   50 2
    44   43   44 1
    45   43   57 1
    46   43   50 am   BACKBONE|DICT|INTERRES
    47   44   49 ar
    48   44   45 ar
    49   45   46 ar
    50   45   52 1
    51   46   47 ar
    52   46   53 1
    53   47   48 ar
    54   48   49 ar
    55   48   54 1
    56   49   55 1
    57   50   51 1
    58   51   58 1
    59   51   60 1
    60   51   59 1
    61   61   67 1
    62   61   76 1
    63   62   70 2
    64   63   70 am   BACKBONE|DICT|INTERRES
    65   63   64 1
    66   63   77 1
    67   64   69 ar
    68   64   65 ar
    69   65   72 1
    70   65   66 ar
    71   66   73 1
    72   66   67 ar
    73   67   68 ar
    74   68   74 1
    75   68   69 ar
    76   69   75 1
    77   70   71 1
    78   71   78 1
    79   71   80 1
    80   71   79 1
    81   81   96 1
    82   81   87 1
    83   82   90 2
    84   83   97 1
    85   83   90 am   BACKBONE|DICT|INTERRES
    86   83   84 1
    87   84   85 ar
    88   84   89 ar
    89   85   92 1
    90   85   86 ar
    91   86   87 ar
    92   86   93 1
    93   87   88 ar
    94   88   89 ar
    95   88   94 1
    96   89   95 1
    97   90   91 1
    98   91   99 1
    99   91   98 1
   100   91  100 1
   101  101  116 1
   102  101  107 1
   103  102  110 2
   104  103  104 1
   105  103  117 1
   106  103  110 am   BACKBONE|DICT|INTERRES
   107  104  105 ar
   108  104  109 ar
   109  105  106 ar
   110  105  112 1
   111  106  113 1
   112  106  107 ar
   113  107  108 ar
   114  108  114 1
   115  108  109 ar
   116  109  115 1
   117  110  111 1
   118  111  119 1
   119  111  118 1
   120  111  120 1
   121  121  136 1
   122  121  127 1
   123  122  130 2
   124  123  124 1
   125  123  137 1
   126  123  130 am   BACKBONE|DICT|INTERRES
   127  124  129 ar
   128  124  125 ar
   129  125  126 ar
   130  125  132 1
   131  126  127 ar
   132  126  133 1
   133  127  128 ar
   134  128  129 ar
   135  128  134 1
   136  129  135 1
   137  130  131 1
   138  131  138 1
   139  131  140 1
   140  131  139 1
   141  141  147 1
   142  141  156 1
   143  142  150 2
   144  143  150 am   BACKBONE|DICT|INTERRES
   145  143  144 1
   146  143  157 1
   147  144  149 ar
   148  144  145 ar
   149  145  152 1
   150  145  146 ar
   151  146  153 1
   152  146  147 ar
   153  147  148 ar
   154  148  154 1
   155  148  149 ar
   156  149  155 1
   157  150  151 1
   158  151  158 1
   159  151  160 1
   160  151  159 1
   161  161  176 1
   162  161  167 1
   163  162  170 2
   164  163  177 1
   165  163  170 am   BACKBONE|DICT|INTERRES
   166  163  164 1
   167  164  165 ar
   168  164  169 ar
   169  165  172 1
   170  165  166 ar
   171  166  167 ar
   172  166  173 1
   173  167  168 ar
   174  168  169 ar
   175  168  174 1
   176  169  175 1
   177  170  171 1
   178  171  179 1
   179  171  178 1
   180  171  180 1
   181  181  196 1
   182  181  187 1
   183  182  190 2
   184  183  184 1
   185  183  197 1
   186  183  190 am   BACKBONE|DICT|INTERRES
   187  184  185 ar
   188  184  189 ar
   189  185  186 ar
   190  185  192 1
   191  186  193 1
   192  186  187 ar
   193  187  188 ar
   194  188  194 1
   195  188  189 ar
   196  189  195 1
   197  190  191 1
   198  191  199 1
   199  191  198 1
   200  191  200 1
   201  201  216 1
   202  201  207 1
   203  202  210 2
   204  203  204 1
   205  203  217 1
   206  203  210 am   BACKBONE|DICT|INTERRES
   207  204  209 ar
   208  204  205 ar
   209  205  206 ar
   210  205  212 1
   211  206  207 ar
   212  206  213 1
   213  207  208 ar
   214  208  209 ar
   215  208  214 1
   216  209  215 1
   217  210  211 1
   218  211  218 1
   219  211  220 1
   220  211  219 1
   221  221  227 1
   222  221  236 1
   223  222  230 2
   224  223  230 am   BACKBONE|DICT|INTERRES
   225  223  224 1
   226  223  237 1
   227  224  229 ar
   228  224  225 ar
   229  225  232 1
   230  225  226 ar
   231  226  233 1
   232  226  227 ar
   233  227  228 ar
   234  228  234 1
   235  228  229 ar
   236  229  235 1
   237  230  231 1
   238  231  238 1
   239  231  240 1
   240  231  239 1
   241  241  256 1
   242  241  247 1
   243  242  250 2
   244  243  257 1
   245  243  250 am   BACKBONE|DICT|INTERRES
   246  243  244 1
   247  244  245 ar
   248  244  249 ar
   249  245  252 1
   250  245  246 ar
   251  246  247 ar
   252  246  253 1
   253  247  248 ar
   254  248  249 ar
   255  248  254 1
   256  249  255 1
   257  250  251 1
   258  251  259 1
   259  251  258 1
   260  251  260 1
   261  261  276 1
   262  261  267 1
   263  262  270 2
   264  263  264 1
   265  263  277 1
   266  263  270 am   BACKBONE|DICT|INTERRES
   267  264  265 ar
   268  264  269 ar
   269  265  266 ar
   270  265  272 1
   271  266  273 1
   272  266  267 ar
   273  267  268 ar
   274  268  274 1
   275  268  269 ar
   276  269  275 1
   277  270  271 1
   278  271  279 1
   279  271  278 1
   280  271  280 1
   281  281  296 1
   282  281  287 1
   283  282  290 2
   284  283  284 1
   285  283  297 1
   286  283  290 am   BACKBONE|DICT|INTERRES
   287  284  289 ar
   288  284  285 ar
   289  285  286 ar
   290  285  292 1
   291  286  287 ar
   292  286  293 1
   293  287  288 ar
   294  288  289 ar
   295  288  294 1
   296  289  295 1
   297  290  291 1
   298  291  298 1
   299  291  300 1
   300  291  299 1
   301  301  307 1
   302  301  316 1
   303  302  310 2
   304  303  310 am   BACKBONE|DICT|INTERRES
   305  303  304 1
   306  303  317 1
   307  304  309 ar
   308  304  305 ar
   309  305  312 1
   310  305  306 ar
   311  306  313 1
   312  306  307 ar
   313  307  308 ar
   314  308  314 1
   315  308  309 ar
   316  309  315 1
   317  310  311 1
   318  311  318 1
   319  311  320 1
   320  311  319 1
   321  321  336 1
   322  321  327 1
   323  322  330 2
   324  323  337 1
   325  323  330 am   BACKBONE|DICT|INTERRES
   326  323  324 1
   327  324  325 ar
   328  324  329 ar
   329  325  332 1
   330  325  326 ar
   331  326  327 ar
   332  326  333 1
   333  327  328 ar
   334  328  329 ar
   335  328  334 1
   336  329  335 1
   337  330  331 1
   338  331  339 1
   339  331  338 1
   340  331  340 1
   341  341  356 1
   342  341  347 1
   343  342  350 2
   344  343  344 1
   345  343  357 1
   346  343  350 am   BACKBONE|DICT|INTERRES
   347  344  345 ar
   348  344  349 ar
   349  345  346 ar
   350  345  352 1
   351  346  353 1
   352  346  347 ar
   353  347  348 ar
   354  348  354 1
   355  348  349 ar
   356  349  355 1
   357  350  351 1
   358  351  359 1
   359  351  358 1
   360  351  360 1
   361  361  376 1
   362  361  367 1
   363  362  370 2
   364  363  364 1
   365  363  377 1
   366  363  370 am   BACKBONE|DICT|INTERRES
   367  364  369 ar
   368  364  365 ar
   369  365  366 ar
   370  365  372 1
   371  366  367 ar
   372  366  373 1
   373  367  368 ar
   374  368  369 ar
   375  368  374 1
   376  369  375 1
   377  370  371 1
   378  371  378 1
   379  371  380 1
   380  371  379 1
   381  381  387 1
   382  381  396 1
   383  382  390 2
   384  383  390 am   BACKBONE|DICT|INTERRES
   385  383  384 1
   386  383  397 1
   387  384  389 ar
   388  384  385 ar
   389  385  392 1
   390  385  386 ar
   391  386  393 1
   392  386  387 ar
   393  387  388 ar
   394  388  394 1
   395  388  389 ar
   396  389  395 1
   397  390  391 1
   398  391  398 1
   399  391  400 1
   400  391  399 1
   401  401  416 1
   402  401  407 1
   403  402  410 2
   404  403  417 1
   405  403  410 am   BACKBONE|DICT|INTERRES
   406  403  404 1
   407  404  405 ar
   408  404  409 ar
   409  405  412 1
   410  405  406 ar
   411  406  407 ar
   412  406  413 1
   413  407  408 ar
   414  408  409 ar
   415  408  414 1
   416  409  415 1
   417  410  411 1
   418  411  419 1
   419  411  418 1
   420  411  420 1
   421  421  436 1
   422  421  427 1
   423  422  430 2
   424  423  424 1
   425  423  437 1
   426  423  430 am   BACKBONE|DICT|INTERRES
   427  424  425 ar
   428  424  429 ar
   429  425  426 ar
   430  425  432 1
   431  426  433 1
   432  426  427 ar
   433  427  428 ar
   434  428  434 1
   435  428  429 ar
   436  429  435 1
   437  430  431 1
   438  431  439 1
   439  431  438 1
   440  431  440 1
   441  441  456 1
   442  441  447 1
   443  442  450 2
   444  443  444 1
   445  443  457 1
   446  443  450 am   BACKBONE|DICT|INTERRES
   447  444  449 ar
   448  444  445 ar
   449  445  446 ar
   450  445  452 1
   451  446  447 ar
   452  446  453 1
   453  447  448 ar
   454  448  449 ar
   455  448  454 1
   456  449  455 1
   457  450  451 1
   458  451  458 1
   459  451  460 1
   460  451  459 1
   461  461  467 1
   462  461  476 1
   463  462  470 2
   464  463  470 am   BACKBONE|DICT|INTERRES
   465  463  464 1
   466  463  477 1
   467  464  469 ar
   468  464  465 ar
   469  465  472 1
   470  465  466 ar
   471  466  473 1
   472  466  467 ar
   473  467  468 ar
   474  468  474 1
   475  468  469 ar
   476  469  475 1
   477  470  471 1
   478  471  478 1
   479  471  480 1
   480  471  479 1
   481  481  496 1
   482  481  487 1
   483  482  490 2
   484  483  497 1
   485  483  490 am   BACKBONE|DICT|INTERRES
   486  483  484 1
   487  484  485 ar
   488  484  489 ar
   489  485  492 1
   490  485  486 ar
   491  486  487 ar
   492  486  493 1
   493  487  488 ar
   494  488  489 ar
   495  488  494 1
   496  489  495 1
   497  490  491 1
   498  491  499 1
   499  491  498 1
   500  491  500 1
   501  501  516 1
   502  501  507 1
   503  502  510 2
   504  503  504 1
   505  503  517 1
   506  503  510 am   BACKBONE|DICT|INTERRES
   507  504  505 ar
   508  504  509 ar
   509  505  506 ar
   510  505  512 1
   511  506  513 1
   512  506  507 ar
   513  507  508 ar
   514  508  514 1
   515  508  509 ar
   516  509  515 1
   517  510  511 1
   518  511  519 1
   519  511  518 1
   520  511  520 1
   521  521  536 1
   522  521  527 1
   523  522  530 2
   524  523  524 1
   525  523  537 1
   526  523  530 am   BACKBONE|DICT|INTERRES
   527  524  529 ar
   528  524  525 ar
   529  525  526 ar
   530  525  532 1
   531  526  527 ar
   532  526  533 1
   533  527  528 ar
   534  528  529 ar
   535  528  534 1
   536  529  535 1
   537  530  531 1
   538  531  538 1
   539  531  540 1
   540  531  539 1
   541  541  547 1
   542  541  556 1
   543  542  550 2
   544  543  550 am   BACKBONE|DICT|INTERRES
   545  543  544 1
   546  543  557 1
   547  544  549 ar
   548  544  545 ar
   549  545  552 1
   550  545  546 ar
   551  546  553 1
   552  546  547 ar
   553  547  548 ar
   554  548  554 1
   555  548  549 ar
   556  549  555 1
   557  550  551 1
   558  551  558 1
   559  551  560 1
   560  551  559 1
   561  561  576 1
   562  561  567 1
   563  562  570 2
   564  563  577 1
   565  563  570 am   BACKBONE|DICT|INTERRES
   566  563  564 1
   567  564  565 ar
   568  564  569 ar
   569  565  572 1
   570  565  566 ar
   571  566  567 ar
   572  566  573 1
   573  567  568 ar
   574  568  569 ar
   575  568  574 1
   576  569  575 1
   577  570  571 1
   578  571  579 1
   579  571  578 1
   580  571  580 1
   581  581  596 1
   582  581  587 1
   583  582  590 2
   584  583  584 1
   585  583  597 1
   586  583  590 am   BACKBONE|DICT|INTERRES
   587  584  585 ar
   588  584  589 ar
   589  585  586 ar
   590  585  592 1
   591  586  593 1
   592  586  587 ar
   593  587  588 ar
   594  588  594 1
   595  588  589 ar
   596  589  595 1
   597  590  591 1
   598  591  599 1
   599  591  598 1
   600  591  600 1
   601  601  616 1
   602  601  607 1
   603  602  610 2
   604  603  604 1
   605  603  617 1
   606  603  610 am   BACKBONE|DICT|INTERRES
   607  604  609 ar
   608  604  605 ar
   609  605  606 ar
   610  605  612 1
   611  606  607 ar
   612  606  613 1
   613  607  608 ar
   614  608  609 ar
   615  608  614 1
   616  609  615 1
   617  610  611 1
   618  611  618 1
   619  611  620 1
   620  611  619 1
   621  621  627 1
   622  621  636 1
   623  622  630 2
   624  623  630 am   BACKBONE|DICT|INTERRES
   625  623  624 1
   626  623  637 1
   627  624  629 ar
   628  624  625 ar
   629  625  632 1
   630  625  626 ar
   631  626  633 1
   632  626  627 ar
   633  627  628 ar
   634  628  634 1
   635  628  629 ar
   636  629  635 1
   637  630  631 1
   638  631  638 1
   639  631  640 1
   640  631  639 1
   641  641  656 1
   642  641  647 1
   643  642  650 2
   644  643  657 1
   645  643  650 am   BACKBONE|DICT|INTERRES
   646  643  644 1
   647  644  645 ar
   648  644  649 ar
   649  645  652 1
   650  645  646 ar
   651  646  647 ar
   652  646  653 1
   653  647  648 ar
   654  648  649 ar
   655  648  654 1
   656  649  655 1
   657  650  651 1
   658  651  659 1
   659  651  658 1
   660  651  660 1
   661  661  676 1
   662  661  667 1
   663  662  670 2
   664  663  664 1
   665  663  677 1
   666  663  670 am   BACKBONE|DICT|INTERRES
   667  664  665 ar
   668  664  669 ar
   669  665  666 ar
   670  665  672 1
   671  666  673 1
   672  666  667 ar
   673  667  668 ar
   674  668  674 1
   675  668  669 ar
   676  669  675 1
   677  670  671 1
   678  671  679 1
   679  671  678 1
   680  671  680 1
   681  681  696 1
   682  681  687 1
   683  682  690 2
   684  683  684 1
   685  683  697 1
   686  683  690 am   BACKBONE|DICT|INTERRES
   687  684  689 ar
   688  684  685 ar
   689  685  686 ar
   690  685  692 1
   691  686  687 ar
   692  686  693 1
   693  687  688 ar
   694  688  689 ar
   695  688  694 1
   696  689  695 1
   697  690  691 1
   698  691  698 1
   699  691  700 1
   700  691  699 1
   701  701  707 1
   702  701  716 1
   703  702  710 2
   704  703  710 am   BACKBONE|DICT|INTERRES
   705  703  704 1
   706  703  717 1
   707  704  709 ar
   708  704  705 ar
   709  705  712 1
   710  705  706 ar
   711  706  713 1
   712  706  707 ar
   713  707  708 ar
   714  708  714 1
   715  708  709 ar
   716  709  715 1
   717  710  711 1
   718  711  718 1
   719  711  720 1
   720  711  719 1
   721  721  736 1
   722  721  727 1
   723  722  730 2
   724  723  737 1
   725  723  730 am   BACKBONE|DICT|INTERRES
   726  723  724 1
   727  724  725 ar
   728  724  729 ar
   729  725  732 1
   730  725  726 ar
   731  726  727 ar
   732  726  733 1
   733  727  728 ar
   734  728  729 ar
   735  728  734 1
   736  729  735 1
   737  730  731 1
   738  731  739 1
   739  731  738 1
   740  731  740 1
   741  741  756 1
   742  741  747 1
   743  742  750 2
   744  743  744 1
   745  743  757 1
   746  743  750 am   BACKBONE|DICT|INTERRES
   747  744  745 ar
   748  744  749 ar
   749  745  746 ar
   750  745  752 1
   751  746  753 1
   752  746  747 ar
   753  747  748 ar
   754  748  754 1
   755  748  749 ar
   756  749  755 1
   757  750  751 1
   758  751  759 1
   759  751  758 1
   760  751  760 1
   761  761  776 1
   762  761  767 1
   763  762  770 2
   764  763  764 1
   765  763  777 1
   766  763  770 am   BACKBONE|DICT|INTERRES
   767  764  769 ar
   768  764  765 ar
   769  765  766 ar
   770  765  772 1
   771  766  767 ar
   772  766  773 1
   773  767  768 ar
   774  768  769 ar
   775  768  774 1
   776  769  775 1
   777  770  771 1
   778  771  778 1
   779  771  780 1
   780  771  779 1
   781  781  787 1
   782  781  796 1
   783  782  790 2
   784  783  790 am   BACKBONE|DICT|INTERRES
   785  783  784 1
   786  783  797 1
   787  784  789 ar
   788  784  785 ar
   789  785  792 1
   790  785  786 ar
   791  786  793 1
   792  786  787 ar
   793  787  788 ar
   794  788  794 1
   795  788  789 ar
   796  789  795 1
   797  790  791 1
   798  791  798 1
   799  791  800 1
   800  791  799 1
   801  801  816 1
   802  801  807 1
   803  802  810 2
   804  803  817 1
   805  803  810 am   BACKBONE|DICT|INTERRES
   806  803  804 1
   807  804  805 ar
   808  804  809 ar
   809  805  812 1
   810  805  806 ar
   811  806  807 ar
   812  806  813 1
   813  807  808 ar
   814  808  809 ar
   815  808  814 1
   816  809  815 1
   817  810  811 1
   818  811  819 1
   819  811  818 1
   820  811  820 1
   821  821  836 1
   822  821  827 1
   823  822  830 2
   824  823  824 1
   825  823  837 1
   826  823  830 am   BACKBONE|DICT|INTERRES
   827  824  825 ar
   828  824  829 ar
   829  825  826 ar
   830  825  832 1
   831  826  833 1
   832  826  827 ar
   833  827  828 ar
   834  828  834 1
   835  828  829 ar
   836  829  835 1
   837  830  831 1
   838  831  839 1
   839  831  838 1
   840  831  840 1
   841  841  856 1
   842  841  847 1
   843  842  850 2
   844  843  844 1
   845  843  857 1
   846  843  850 am   BACKBONE|DICT|INTERRES
   847  844  849 ar
   848  844  845 ar
   849  845  846 ar
   850  845  852 1
   851  846  847 ar
   852  846  853 1
   853  847  848 ar
   854  848  849 ar
   855  848  854 1
   856  849  855 1
   857  850  851 1
   858  851  858 1
   859  851  860 1
   860  851  859 1
   861  861  867 1
   862  861  876 1
   863  862  870 2
   864  863  870 am   BACKBONE|DICT|INTERRES
   865  863  864 1
   866  863  877 1
   867  864  869 ar
   868  864  865 ar
   869  865  872 1
   870  865  866 ar
   871  866  873 1
   872  866  867 ar
   873  867  868 ar
   874  868  874 1
   875  868  869 ar
   876  869  875 1
   877  870  871 1
   878  871  878 1
   879  871  880 1
   880  871  879 1
   881  881  896 1
   882  881  887 1
   883  882  890 2
   884  883  897 1
   885  883  890 am   BACKBONE|DICT|INTERRES
   886  883  884 1
   887  884  885 ar
   888  884  889 ar
   889  885  892 1
   890  885  886 ar
   891  886  887 ar
   892  886  893 1
   893  887  888 ar
   894  888  889 ar
   895  888  894 1
   896  889  895 1
   897  890  891 1
   898  891  899 1
   899  891  898 1
   900  891  900 1
   901  901  916 1
   902  901  907 1
   903  902  910 2
   904  903  904 1
   905  903  917 1
   906  903  910 am   BACKBONE|DICT|INTERRES
   907  904  905 ar
   908  904  909 ar
   909  905  906 ar
   910  905  912 1
   911  906  913 1
   912  906  907 ar
   913  907  908 ar
   914  908  914 1
   915  908  909 ar
   916  909  915 1
   917  910  911 1
   918  911  919 1
   919  911  918 1
   920  911  920 1
   921  921  936 1
   922  921  927 1
   923  922  930 2
   924  923  924 1
   925  923  937 1
   926  923  930 am   BACKBONE|DICT|INTERRES
   927  924  929 ar
   928  924  925 ar
   929  925  926 ar
   930  925  932 1
   931  926  927 ar
   932  926  933 1
   933  927  928 ar
   934  928  929 ar
   935  928  934 1
   936  929  935 1
   937  930  931 1
   938  931  938 1
   939  931  940 1
   940  931  939 1
   941  941  947 1
   942  941  956 1
   943  942  950 2
   944  943  950 am   BACKBONE|DICT|INTERRES
   945  943  944 1
   946  943  957 1
   947  944  949 ar
   948  944  945 ar
   949  945  952 1
   950  945  946 ar
   951  946  953 1
   952  946  947 ar
   953  947  948 ar
   954  948  954 1
   955  948  949 ar
   956  949  955 1
   957  950  951 1
   958  951  958 1
   959  951  960 1
   960  951  959 1
   961  961  976 1
   962  961  967 1
   963  962  970 2
   964  963  977 1
   965  963  970 am   BACKBONE|DICT|INTERRES
   966  963  964 1
   967  964  965 ar
   968  964  969 ar
   969  965  972 1
   970  965  966 ar
   971  966  967 ar
   972  966  973 1
   973  967  968 ar
   974  968  969 ar
   975  968  974 1
   976  969  975 1
   977  970  971 1
   978  971  979 1
   979  971  978 1
   980  971  980 1
   981  981  996 1
   982  981  987 1
   983  982  990 2
   984  983  984 1
   985  983  997 1
   986  983  990 am   BACKBONE|DICT|INTERRES
   987  984  985 ar
   988  984  989 ar
   989  985  986 ar
   990  985  992 1
   991  986  993 1
   992  986  987 ar
   993  987  988 ar
   994  988  994 1
   995  988  989 ar
   996  989  995 1
   997  990  991 1
   998  991  999 1
   999  991  998 1
  1000  991 1000 1
  1001 1001 1016 1
  1002 1001 1007 1
  1003 1002 1010 2
  1004 1003 1004 1
  1005 1003 1017 1
  1006 1003 1010 am   BACKBONE|DICT|INTERRES
  1007 1004 1009 ar
  1008 1004 1005 ar
  1009 1005 1006 ar
  1010 1005 1012 1
  1011 1006 1007 ar
  1012 1006 1013 1
  1013 1007 1008 ar
  1014 1008 1009 ar
  1015 1008 1014 1
  1016 1009 1015 1
  1017 1010 1011 1
  1018 1011 1018 1
  1019 1011 1020 1
  1020 1011 1019 1
  1021 1021 1027 1
  1022 1021 1036 1
  1023 1022 1030 2
  1024 1023 1030 am   BACKBONE|DICT|INTERRES
  1025 1023 1024 1
  1026 1023 1037 1
  1027 1024 1029 ar
  1028 1024 1025 ar
  1029 1025 1032 1
  1030 1025 1026 ar
  1031 1026 1033 1
  1032 1026 1027 ar
  1033 1027 1028 ar
  1034 1028 1034 1
  1035 1028 1029 ar
  1036 1029 1035 1
  1037 1030 1031 1
  1038 1031 1038 1
  1039 1031 1040 1
  1040 1031 1039 1
  1041 1041 1056 1
  1042 1041 1047 1
  1043 1042 1050 2
  1044 1043 1057 1
  1045 1043 1050 am   BACKBONE|DICT|INTERRES
  1046 1043 1044 1
  1047 1044 1045 ar
  1048 1044 1049 ar
  1049 1045 1052 1
  1050 1045 1046 ar
  1051 1046 1047 ar
  1052 1046 1053 1
  1053 1047 1048 ar
  1054 1048 1049 ar
  1055 1048 1054 1
  1056 1049 1055 1
  1057 1050 1051 1
  1058 1051 1059 1
  1059 1051 1058 1
  1060 1051 1060 1
  1061 1061 1076 1
  1062 1061 1067 1
  1063 1062 1070 2
  1064 1063 1064 1
  1065 1063 1077 1
  1066 1063 1070 am   BACKBONE|DICT|INTERRES
  1067 1064 1065 ar
  1068 1064 1069 ar
  1069 1065 1066 ar
  1070 1065 1072 1
  1071 1066 1073 1
  1072 1066 1067 ar
  1073 1067 1068 ar
  1074 1068 1074 1
  1075 1068 1069 ar
  1076 1069 1075 1
  1077 1070 1071 1
  1078 1071 1079 1
  1079 1071 1078 1
  1080 1071 1080 1
  1081 1081 1096 1
  1082 1081 1087 1
  1083 1082 1090 2
  1084 1083 1084 1
  1085 1083 1097 1
  1086 1083 1090 am   BACKBONE|DICT|INTERRES
  1087 1084 1089 ar
  1088 1084 1085 ar
  1089 1085 1086 ar
  1090 1085 1092 1
  1091 1086 1087 ar
  1092 1086 1093 1
  1093 1087 1088 ar
  1094 1088 1089 ar
  1095 1088 1094 1
  1096 1089 1095 1
  1097 1090 1091 1
  1098 1091 1098 1
  1099 1091 1100 1
  1100 1091 1099 1
  1101 1101 1107 1
  1102 1101 1116 1
  1103 1102 1110 2
  1104 1103 1110 am   BACKBONE|DICT|INTERRES
  1105 1103 1104 1
  1106 1103 1117 1
  1107 1104 1109 ar
  1108 1104 1105 ar
  1109 1105 1112 1
  1110 1105 1106 ar
  1111 1106 1113 1
  1112 1106 1107 ar
  1113 1107 1108 ar
  1114 1108 1114 1
  1115 1108 1109 ar
  1116 1109 1115 1
  1117 1110 1111 1
  1118 1111 1118 1
  1119 1111 1120 1
  1120 1111 1119 1
  1121 1121 1136 1
  1122 1121 1127 1
  1123 1122 1130 2
  1124 1123 1137 1
  1125 1123 1130 am   BACKBONE|DICT|INTERRES
  1126 1123 1124 1
  1127 1124 1125 ar
  1128 1124 1129 ar
  1129 1125 1132 1
  1130 1125 1126 ar
  1131 1126 1127 ar
  1132 1126 1133 1
  1133 1127 1128 ar
  1134 1128 1129 ar
  1135 1128 1134 1
  1136 1129 1135 1
  1137 1130 1131 1
  1138 1131 1139 1
  1139 1131 1138 1
  1140 1131 1140 1
  1141 1141 1156 1
  1142 1141 1147 1
  1143 1142 1150 2
  1144 1143 1144 1
  1145 1143 1157 1
  1146 1143 1150 am   BACKBONE|DICT|INTERRES
  1147 1144 1145 ar
  1148 1144 1149 ar
  1149 1145 1146 ar
  1150 1145 1152 1
  1151 1146 1153 1
  1152 1146 1147 ar
  1153 1147 1148 ar
  1154 1148 1154 1
  1155 1148 1149 ar
  1156 1149 1155 1
  1157 1150 1151 1
  1158 1151 1159 1
  1159 1151 1158 1
  1160 1151 1160 1
  1161 1161 1176 1
  1162 1161 1167 1
  1163 1162 1170 2
  1164 1163 1164 1
  1165 1163 1177 1
  1166 1163 1170 am   BACKBONE|DICT|INTERRES
  1167 1164 1169 ar
  1168 1164 1165 ar
  1169 1165 1166 ar
  1170 1165 1172 1
  1171 1166 1167 ar
  1172 1166 1173 1
  1173 1167 1168 ar
  1174 1168 1169 ar
  1175 1168 1174 1
  1176 1169 1175 1
  1177 1170 1171 1
  1178 1171 1178 1
  1179 1171 1180 1
  1180 1171 1179 1
  1181 1181 1187 1
  1182 1181 1196 1
  1183 1182 1190 2
  1184 1183 1190 am   BACKBONE|DICT|INTERRES
  1185 1183 1184 1
  1186 1183 1197 1
  1187 1184 1189 ar
  1188 1184 1185 ar
  1189 1185 1192 1
  1190 1185 1186 ar
  1191 1186 1193 1
  1192 1186 1187 ar
  1193 1187 1188 ar
  1194 1188 1194 1
  1195 1188 1189 ar
  1196 1189 1195 1
  1197 1190 1191 1
  1198 1191 1198 1
  1199 1191 1200 1
  1200 1191 1199 1
  1201 1201 1216 1
  1202 1201 1207 1
  1203 1202 1210 2
  1204 1203 1217 1
  1205 1203 1210 am   BACKBONE|DICT|INTERRES
  1206 1203 1204 1
  1207 1204 1205 ar
  1208 1204 1209 ar
  1209 1205 1212 1
  1210 1205 1206 ar
  1211 1206 1207 ar
  1212 1206 1213 1
  1213 1207 1208 ar
  1214 1208 1209 ar
  1215 1208 1214 1
  1216 1209 1215 1
  1217 1210 1211 1
  1218 1211 1219 1
  1219 1211 1218 1
  1220 1211 1220 1
  1221 1221 1236 1
  1222 1221 1227 1
  1223 1222 1230 2
  1224 1223 1224 1
  1225 1223 1237 1
  1226 1223 1230 am   BACKBONE|DICT|INTERRES
  1227 1224 1225 ar
  1228 1224 1229 ar
  1229 1225 1226 ar
  1230 1225 1232 1
  1231 1226 1233 1
  1232 1226 1227 ar
  1233 1227 1228 ar
  1234 1228 1234 1
  1235 1228 1229 ar
  1236 1229 1235 1
  1237 1230 1231 1
  1238 1231 1239 1
  1239 1231 1238 1
  1240 1231 1240 1
  1241 1241 1256 1
  1242 1241 1247 1
  1243 1242 1250 2
  1244 1243 1244 1
  1245 1243 1257 1
  1246 1243 1250 am   BACKBONE|DICT|INTERRES
  1247 1244 1249 ar
  1248 1244 1245 ar
  1249 1245 1246 ar
  1250 1245 1252 1
  1251 1246 1247 ar
  1252 1246 1253 1
  1253 1247 1248 ar
  1254 1248 1249 ar
  1255 1248 1254 1
  1256 1249 1255 1
  1257 1250 1251 1
  1258 1251 1258 1
  1259 1251 1260 1
  1260 1251 1259 1
  1261 1261 1267 1
  1262 1261 1276 1
  1263 1262 1270 2
  1264 1263 1270 am   BACKBONE|DICT|INTERRES
  1265 1263 1264 1
  1266 1263 1277 1
  1267 1264 1269 ar
  1268 1264 1265 ar
  1269 1265 1272 1
  1270 1265 1266 ar
  1271 1266 1273 1
  1272 1266 1267 ar
  1273 1267 1268 ar
  1274 1268 1274 1
  1275 1268 1269 ar
  1276 1269 1275 1
  1277 1270 1271 1
  1278 1271 1278 1
  1279 1271 1280 1
  1280 1271 1279 1
  1281 1281 1296 1
  1282 1281 1287 1
  1283 1282 1290 2
  1284 1283 1297 1
  1285 1283 1290 am   BACKBONE|DICT|INTERRES
  1286 1283 1284 1
  1287 1284 1285 ar
  1288 1284 1289 ar
  1289 1285 1292 1
  1290 1285 1286 ar
  1291 1286 1287 ar
  1292 1286 1293 1
  1293 1287 1288 ar
  1294 1288 1289 ar
  1295 1288 1294 1
  1296 1289 1295 1
  1297 1290 1291 1
  1298 1291 1299 1
  1299 1291 1298 1
  1300 1291 1300 1
  1301 1301 1316 1
  1302 1301 1307 1
  1303 1302 1310 2
  1304 1303 1304 1
  1305 1303 1317 1
  1306 1303 1310 am   BACKBONE|DICT|INTERRES
  1307 1304 1305 ar
  1308 1304 1309 ar
  1309 1305 1306 ar
  1310 1305 1312 1
  1311 1306 1313 1
  1312 1306 1307 ar
  1313 1307 1308 ar
  1314 1308 1314 1
  1315 1308 1309 ar
  1316 1309 1315 1
  1317 1310 1311 1
  1318 1311 1319 1
  1319 1311 1318 1
  1320 1311 1320 1
  1321 1321 1336 1
  1322 1321 1327 1
  1323 1322 1330 2
  1324 1323 1324 1
  1325 1323 1337 1
  1326 1323 1330 am   BACKBONE|DICT|INTERRES
  1327 1324 1329 ar
  1328 1324 1325 ar
  1329 1325 1326 ar
  1330 1325 1332 1
  1331 1326 1327 ar
  1332 1326 1333 1
  1333 1327 1328 ar
  1334 1328 1329 ar
  1335 1328 1334 1
  1336 1329 1335 1
  1337 1330 1331 1
  1338 1331 1338 1
  1339 1331 1340 1
  1340 1331 1339 1
  1341 1341 1347 1
  1342 1341 1356 1
  1343 1342 1350 2
  1344 1343 1350 am   BACKBONE|DICT|INTERRES
  1345 1343 1344 1
  1346 1343 1357 1
  1347 1344 1349 ar
  1348 1344 1345 ar
  1349 1345 1352 1
  1350 1345 1346 ar
  1351 1346 1353 1
  1352 1346 1347 ar
  1353 1347 1348 ar
  1354 1348 1354 1
  1355 1348 1349 ar
  1356 1349 1355 1
  1357 1350 1351 1
  1358 1351 1358 1
  1359 1351 1360 1
  1360 1351 1359 1
  1361 1361 1376 1
  1362 1361 1367 1
  1363 1362 1370 2
  1364 1363 1377 1
  1365 1363 1370 am   BACKBONE|DICT|INTERRES
  1366 1363 1364 1
  1367 1364 1365 ar
  1368 1364 1369 ar
  1369 1365 1372 1
  1370 1365 1366 ar
  1371 1366 1367 ar
  1372 1366 1373 1
  1373 1367 1368 ar
  1374 1368 1369 ar
  1375 1368 1374 1
  1376 1369 1375 1
  1377 1370 1371 1
  1378 1371 1379 1
  1379 1371 1378 1
  1380 1371 1380 1
  1381 1381 1396 1
  1382 1381 1387 1
  1383 1382 1390 2
  1384 1383 1384 1
  1385 1383 1397 1
  1386 1383 1390 am   BACKBONE|DICT|INTERRES
  1387 1384 1385 ar
  1388 1384 1389 ar
  1389 1385 1386 ar
  1390 1385 1392 1
  1391 1386 1393 1
  1392 1386 1387 ar
  1393 1387 1388 ar
  1394 1388 1394 1
  1395 1388 1389 ar
  1396 1389 1395 1
  1397 1390 1391 1
  1398 1391 1399 1
  1399 1391 1398 1
  1400 1391 1400 1
  1401 1401 1416 1
  1402 1401 1407 1
  1403 1402 1410 2
  1404 1403 1404 1
  1405 1403 1417 1
  1406 1403 1410 am   BACKBONE|DICT|INTERRES
  1407 1404 1409 ar
  1408 1404 1405 ar
  1409 1405 1406 ar
  1410 1405 1412 1
  1411 1406 1407 ar
  1412 1406 1413 1
  1413 1407 1408 ar
  1414 1408 1409 ar
  1415 1408 1414 1
  1416 1409 1415 1
  1417 1410 1411 1
  1418 1411 1418 1
  1419 1411 1420 1
  1420 1411 1419 1
  1421 1421 1427 1
  1422 1421 1436 1
  1423 1422 1430 2
  1424 1423 1430 am   BACKBONE|DICT|INTERRES
  1425 1423 1424 1
  1426 1423 1437 1
  1427 1424 1429 ar
  1428 1424 1425 ar
  1429 1425 1432 1
  1430 1425 1426 ar
  1431 1426 1433 1
  1432 1426 1427 ar
  1433 1427 1428 ar
  1434 1428 1434 1
  1435 1428 1429 ar
  1436 1429 1435 1
  1437 1430 1431 1
  1438 1431 1438 1
  1439 1431 1440 1
  1440 1431 1439 1
  1441 1441 1456 1
  1442 1441 1447 1
  1443 1442 1450 2
  1444 1443 1457 1
  1445 1443 1450 am   BACKBONE|DICT|INTERRES
  1446 1443 1444 1
  1447 1444 1445 ar
  1448 1444 1449 ar
  1449 1445 1452 1
  1450 1445 1446 ar
  1451 1446 1447 ar
  1452 1446 1453 1
  1453 1447 1448 ar
  1454 1448 1449 ar
  1455 1448 1454 1
  1456 1449 1455 1
  1457 1450 1451 1
  1458 1451 1459 1
  1459 1451 1458 1
  1460 1451 1460 1
  1461 1461 1476 1
  1462 1461 1467 1
  1463 1462 1470 2
  1464 1463 1464 1
  1465 1463 1477 1
  1466 1463 1470 am   BACKBONE|DICT|INTERRES
  1467 1464 1465 ar
  1468 1464 1469 ar
  1469 1465 1466 ar
  1470 1465 1472 1
  1471 1466 1473 1
  1472 1466 1467 ar
  1473 1467 1468 ar
  1474 1468 1474 1
  1475 1468 1469 ar
  1476 1469 1475 1
  1477 1470 1471 1
  1478 1471 1479 1
  1479 1471 1478 1
  1480 1471 1480 1
  1481 1481 1496 1
  1482 1481 1487 1
  1483 1482 1490 2
  1484 1483 1484 1
  1485 1483 1497 1
  1486 1483 1490 am   BACKBONE|DICT|INTERRES
  1487 1484 1489 ar
  1488 1484 1485 ar
  1489 1485 1486 ar
  1490 1485 1492 1
  1491 1486 1487 ar
  1492 1486 1493 1
  1493 1487 1488 ar
  1494 1488 1489 ar
  1495 1488 1494 1
  1496 1489 1495 1
  1497 1490 1491 1
  1498 1491 1498 1
  1499 1491 1500 1
  1500 1491 1499 1
  1501 1501 1507 1
  1502 1501 1516 1
  1503 1502 1510 2
  1504 1503 1510 am   BACKBONE|DICT|INTERRES
  1505 1503 1504 1
  1506 1503 1517 1
  1507 1504 1509 ar
  1508 1504 1505 ar
  1509 1505 1512 1
  1510 1505 1506 ar
  1511 1506 1513 1
  1512 1506 1507 ar
  1513 1507 1508 ar
  1514 1508 1514 1
  1515 1508 1509 ar
  1516 1509 1515 1
  1517 1510 1511 1
  1518 1511 1518 1
  1519 1511 1520 1
  1520 1511 1519 1
  1521 1521 1536 1
  1522 1521 1527 1
  1523 1522 1530 2
  1524 1523 1537 1
  1525 1523 1530 am   BACKBONE|DICT|INTERRES
  1526 1523 1524 1
  1527 1524 1525 ar
  1528 1524 1529 ar
  1529 1525 1532 1
  1530 1525 1526 ar
  1531 1526 1527 ar
  1532 1526 1533 1
  1533 1527 1528 ar
  1534 1528 1529 ar
  1535 1528 1534 1
  1536 1529 1535 1
  1537 1530 1531 1
  1538 1531 1539 1
  1539 1531 1538 1
  1540 1531 1540 1
  1541 1541 1556 1
  1542 1541 1547 1
  1543 1542 1550 2
  1544 1543 1544 1
  1545 1543 1557 1
  1546 1543 1550 am   BACKBONE|DICT|INTERRES
  1547 1544 1545 ar
  1548 1544 1549 ar
  1549 1545 1546 ar
  1550 1545 1552 1
  1551 1546 1553 1
  1552 1546 1547 ar
  1553 1547 1548 ar
  1554 1548 1554 1
  1555 1548 1549 ar
  1556 1549 1555 1
  1557 1550 1551 1
  1558 1551 1559 1
  1559 1551 1558 1
  1560 1551 1560 1
  1561 1561 1576 1
  1562 1561 1567 1
  1563 1562 1570 2
  1564 1563 1564 1
  1565 1563 1577 1
  1566 1563 1570 am   BACKBONE|DICT|INTERRES
  1567 1564 1569 ar
  1568 1564 1565 ar
  1569 1565 1566 ar
  1570 1565 1572 1
  1571 1566 1567 ar
  1572 1566 1573 1
  1573 1567 1568 ar
  1574 1568 1569 ar
  1575 1568 1574 1
  1576 1569 1575 1
  1577 1570 1571 1
  1578 1571 1578 1
  1579 1571 1580 1
  1580 1571 1579 1
  1581 1581 1587 1
  1582 1581 1596 1
  1583 1582 1590 2
  1584 1583 1590 am   BACKBONE|DICT|INTERRES
  1585 1583 1584 1
  1586 1583 1597 1
  1587 1584 1589 ar
  1588 1584 1585 ar
  1589 1585 1592 1
  1590 1585 1586 ar
  1591 1586 1593 1
  1592 1586 1587 ar
  1593 1587 1588 ar
  1594 1588 1594 1
  1595 1588 1589 ar
  1596 1589 1595 1
  1597 1590 1591 1
  1598 1591 1598 1
  1599 1591 1600 1
  1600 1591 1599 1
  1601 1601 1616 1
  1602 1601 1607 1
  1603 1602 1610 2
  1604 1603 1617 1
  1605 1603 1610 am   BACKBONE|DICT|INTERRES
  1606 1603 1604 1
  1607 1604 1605 ar
  1608 1604 1609 ar
  1609 1605 1612 1
  1610 1605 1606 ar
  1611 1606 1607 ar
  1612 1606 1613 1
  1613 1607 1608 ar
  1614 1608 1609 ar
  1615 1608 1614 1
  1616 1609 1615 1
  1617 1610 1611 1
  1618 1611 1619 1
  1619 1611 1618 1
  1620 1611 1620 1
  1621 1621 1636 1
  1622 1621 1627 1
  1623 1622 1630 2
  1624 1623 1624 1
  1625 1623 1637 1
  1626 1623 1630 am   BACKBONE|DICT|INTERRES
  1627 1624 1625 ar
  1628 1624 1629 ar
  1629 1625 1626 ar
  1630 1625 1632 1
  1631 1626 1633 1
  1632 1626 1627 ar
  1633 1627 1628 ar
  1634 1628 1634 1
  1635 1628 1629 ar
  1636 1629 1635 1
  1637 1630 1631 1
  1638 1631 1639 1
  1639 1631 1638 1
  1640 1631 1640 1
  1641 1641 1656 1
  1642 1641 1647 1
  1643 1642 1650 2
  1644 1643 1644 1
  1645 1643 1657 1
  1646 1643 1650 am   BACKBONE|DICT|INTERRES
  1647 1644 1649 ar
  1648 1644 1645 ar
  1649 1645 1646 ar
  1650 1645 1652 1
  1651 1646 1647 ar
  1652 1646 1653 1
  1653 1647 1648 ar
  1654 1648 1649 ar
  1655 1648 1654 1
  1656 1649 1655 1
  1657 1650 1651 1
  1658 1651 1658 1
  1659 1651 1660 1
  1660 1651 1659 1
  1661 1661 1667 1
  1662 1661 1676 1
  1663 1662 1670 2
  1664 1663 1670 am   BACKBONE|DICT|INTERRES
  1665 1663 1664 1
  1666 1663 1677 1
  1667 1664 1669 ar
  1668 1664 1665 ar
  1669 1665 1672 1
  1670 1665 1666 ar
  1671 1666 1673 1
  1672 1666 1667 ar
  1673 1667 1668 ar
  1674 1668 1674 1
  1675 1668 1669 ar
  1676 1669 1675 1
  1677 1670 1671 1
  1678 1671 1678 1
  1679 1671 1680 1
  1680 1671 1679 1
  1681 1681 1696 1
  1682 1681 1687 1
  1683 1682 1690 2
  1684 1683 1697 1
  1685 1683 1690 am   BACKBONE|DICT|INTERRES
  1686 1683 1684 1
  1687 1684 1685 ar
  1688 1684 1689 ar
  1689 1685 1692 1
  1690 1685 1686 ar
  1691 1686 1687 ar
  1692 1686 1693 1
  1693 1687 1688 ar
  1694 1688 1689 ar
  1695 1688 1694 1
  1696 1689 1695 1
  1697 1690 1691 1
  1698 1691 1699 1
  1699 1691 1698 1
  1700 1691 1700 1
  1701 1701 1716 1
  1702 1701 1707 1
  1703 1702 1710 2
  1704 1703 1704 1
  1705 1703 1717 1
  1706 1703 1710 am   BACKBONE|DICT|INTERRES
  1707 1704 1705 ar
  1708 1704 1709 ar
  1709 1705 1706 ar
  1710 1705 1712 1
  1711 1706 1713 1
  1712 1706 1707 ar
  1713 1707 1708 ar
  1714 1708 1714 1
  1715 1708 1709 ar
  1716 1709 1715 1
  1717 1710 1711 1
  1718 1711 1719 1
  1719 1711 1718 1
  1720 1711 1720 1
  1721 1721 1736 1
  1722 1721 1727 1
  1723 1722 1730 2
  1724 1723 1724 1
  1725 1723 1737 1
  1726 1723 1730 am   BACKBONE|DICT|INTERRES
  1727 1724 1729 ar
  1728 1724 1725 ar
  1729 1725 1726 ar
  1730 1725 1732 1
  1731 1726 1727 ar
  1732 1726 1733 1
  1733 1727 1728 ar
  1734 1728 1729 ar
  1735 1728 1734 1
  1736 1729 1735 1
  1737 1730 1731 1
  1738 1731 1738 1
  1739 1731 1740 1
  1740 1731 1739 1
  1741 1741 1747 1
  1742 1741 1756 1
  1743 1742 1750 2
  1744 1743 1750 am   BACKBONE|DICT|INTERRES
  1745 1743 1744 1
  1746 1743 1757 1
  1747 1744 1749 ar
  1748 1744 1745 ar
  1749 1745 1752 1
  1750 1745 1746 ar
  1751 1746 1753 1
  1752 1746 1747 ar
  1753 1747 1748 ar
  1754 1748 1754 1
  1755 1748 1749 ar
  1756 1749 1755 1
  1757 1750 1751 1
  1758 1751 1758 1
  1759 1751 1760 1
  1760 1751 1759 1
  1761 1761 1776 1
  1762 1761 1767 1
  1763 1762 1770 2
  1764 1763 1777 1
  1765 1763 1770 am   BACKBONE|DICT|INTERRES
  1766 1763 1764 1
  1767 1764 1765 ar
  1768 1764 1769 ar
  1769 1765 1772 1
  1770 1765 1766 ar
  1771 1766 1767 ar
  1772 1766 1773 1
  1773 1767 1768 ar
  1774 1768 1769 ar
  1775 1768 1774 1
  1776 1769 1775 1
  1777 1770 1771 1
  1778 1771 1779 1
  1779 1771 1778 1
  1780 1771 1780 1
  1781 1781 1796 1
  1782 1781 1787 1
  1783 1782 1790 2
  1784 1783 1784 1
  1785 1783 1797 1
  1786 1783 1790 am   BACKBONE|DICT|INTERRES
  1787 1784 1785 ar
  1788 1784 1789 ar
  1789 1785 1786 ar
  1790 1785 1792 1
  1791 1786 1793 1
  1792 1786 1787 ar
  1793 1787 1788 ar
  1794 1788 1794 1
  1795 1788 1789 ar
  1796 1789 1795 1
  1797 1790 1791 1
  1798 1791 1799 1
  1799 1791 1798 1
  1800 1791 1800 1
  1801 1801 1816 1
  1802 1801 1807 1
  1803 1802 1810 2
  1804 1803 1804 1
  1805 1803 1817 1
  1806 1803 1810 am   BACKBONE|DICT|INTERRES
  1807 1804 1809 ar
  1808 1804 1805 ar
  1809 1805 1806 ar
  1810 1805 1812 1
  1811 1806 1807 ar
  1812 1806 1813 1
  1813 1807 1808 ar
  1814 1808 1809 ar
  1815 1808 1814 1
  1816 1809 1815 1
  1817 1810 1811 1
  1818 1811 1818 1
  1819 1811 1820 1
  1820 1811 1819 1
  1821 1821 1827 1
  1822 1821 1836 1
  1823 1822 1830 2
  1824 1823 1830 am   BACKBONE|DICT|INTERRES
  1825 1823 1824 1
  1826 1823 1837 1
  1827 1824 1829 ar
  1828 1824 1825 ar
  1829 1825 1832 1
  1830 1825 1826 ar
  1831 1826 1833 1
  1832 1826 1827 ar
  1833 1827 1828 ar
  1834 1828 1834 1
  1835 1828 1829 ar
  1836 1829 1835 1
  1837 1830 1831 1
  1838 1831 1838 1
  1839 1831 1840 1
  1840 1831 1839 1
  1841 1841 1856 1
  1842 1841 1847 1
  1843 1842 1850 2
  1844 1843 1857 1
  1845 1843 1850 am   BACKBONE|DICT|INTERRES
  1846 1843 1844 1
  1847 1844 1845 ar
  1848 1844 1849 ar
  1849 1845 1852 1
  1850 1845 1846 ar
  1851 1846 1847 ar
  1852 1846 1853 1
  1853 1847 1848 ar
  1854 1848 1849 ar
  1855 1848 1854 1
  1856 1849 1855 1
  1857 1850 1851 1
  1858 1851 1859 1
  1859 1851 1858 1
  1860 1851 1860 1
  1861 1861 1876 1
  1862 1861 1867 1
  1863 1862 1870 2
  1864 1863 1864 1
  1865 1863 1877 1
  1866 1863 1870 am   BACKBONE|DICT|INTERRES
  1867 1864 1865 ar
  1868 1864 1869 ar
  1869 1865 1866 ar
  1870 1865 1872 1
  1871 1866 1873 1
  1872 1866 1867 ar
  1873 1867 1868 ar
  1874 1868 1874 1
  1875 1868 1869 ar
  1876 1869 1875 1
  1877 1870 1871 1
  1878 1871 1879 1
  1879 1871 1878 1
  1880 1871 1880 1
  1881 1881 1896 1
  1882 1881 1887 1
  1883 1882 1890 2
  1884 1883 1884 1
  1885 1883 1897 1
  1886 1883 1890 am   BACKBONE|DICT|INTERRES
  1887 1884 1889 ar
  1888 1884 1885 ar
  1889 1885 1886 ar
  1890 1885 1892 1
  1891 1886 1887 ar
  1892 1886 1893 1
  1893 1887 1888 ar
  1894 1888 1889 ar
  1895 1888 1894 1
  1896 1889 1895 1
  1897 1890 1891 1
  1898 1891 1898 1
  1899 1891 1900 1
  1900 1891 1899 1
  1901 1901 1907 1
  1902 1901 1916 1
  1903 1902 1910 2
  1904 1903 1910 am   BACKBONE|DICT|INTERRES
  1905 1903 1904 1
  1906 1903 1917 1
  1907 1904 1909 ar
  1908 1904 1905 ar
  1909 1905 1912 1
  1910 1905 1906 ar
  1911 1906 1913 1
  1912 1906 1907 ar
  1913 1907 1908 ar
  1914 1908 1914 1
  1915 1908 1909 ar
  1916 1909 1915 1
  1917 1910 1911 1
  1918 1911 1918 1
  1919 1911 1920 1
  1920 1911 1919 1
  1921 1921 1936 1
  1922 1921 1927 1
  1923 1922 1930 2
  1924 1923 1937 1
  1925 1923 1930 am   BACKBONE|DICT|INTERRES
  1926 1923 1924 1
  1927 1924 1925 ar
  1928 1924 1929 ar
  1929 1925 1932 1
  1930 1925 1926 ar
  1931 1926 1927 ar
  1932 1926 1933 1
  1933 1927 1928 ar
  1934 1928 1929 ar
  1935 1928 1934 1
  1936 1929 1935 1
  1937 1930 1931 1
  1938 1931 1939 1
  1939 1931 1938 1
  1940 1931 1940 1
  1941 1941 1956 1
  1942 1941 1947 1
  1943 1942 1950 2
  1944 1943 1944 1
  1945 1943 1957 1
  1946 1943 1950 am   BACKBONE|DICT|INTERRES
  1947 1944 1945 ar
  1948 1944 1949 ar
  1949 1945 1946 ar
  1950 1945 1952 1
  1951 1946 1953 1
  1952 1946 1947 ar
  1953 1947 1948 ar
  1954 1948 1954 1
  1955 1948 1949 ar
  1956 1949 1955 1
  1957 1950 1951 1
  1958 1951 1959 1
  1959 1951 1958 1
  1960 1951 1960 1
  1961 1961 1976 1
  1962 1961 1967 1
  1963 1962 1970 2
  1964 1963 1964 1
  1965 1963 1977 1
  1966 1963 1970 am   BACKBONE|DICT|INTERRES
  1967 1964 1969 ar
  1968 1964 1965 ar
  1969 1965 1966 ar
  1970 1965 1972 1
  1971 1966 1967 ar
  1972 1966 1973 1
  1973 1967 1968 ar
  1974 1968 1969 ar
  1975 1968 1974 1
  1976 1969 1975 1
  1977 1970 1971 1
  1978 1971 1978 1
  1979 1971 1980 1
  1980 1971 1979 1
  1981 1981 1987 1
  1982 1981 1996 1
  1983 1982 1990 2
  1984 1983 1990 am   BACKBONE|DICT|INTERRES
  1985 1983 1984 1
  1986 1983 1997 1
  1987 1984 1989 ar
  1988 1984 1985 ar
  1989 1985 1992 1
  1990 1985 1986 ar
  1991 1986 1993 1
  1992 1986 1987 ar
  1993 1987 1988 ar
  1994 1988 1994 1
  1995 1988 1989 ar
  1996 1989 1995 1
  1997 1990 1991 1
  1998 1991 1998 1
  1999 1991 2000 1
  2000 1991 1999 1
  2001 2001 2016 1
  2002 2001 2007 1
  2003 2002 2010 2
  2004 2003 2017 1
  2005 2003 2010 am   BACKBONE|DICT|INTERRES
  2006 2003 2004 1
  2007 2004 2005 ar
  2008 2004 2009 ar
  2009 2005 2012 1
  2010 2005 2006 ar
  2011 2006 2007 ar
  2012 2006 2013 1
  2013 2007 2008 ar
  2014 2008 2009 ar
  2015 2008 2014 1
  2016 2009 2015 1
  2017 2010 2011 1
  2018 2011 2019 1
  2019 2011 2018 1
  2020 2011 2020 1
  2021 2021 2036 1
  2022 2021 2027 1
  2023 2022 2030 2
  2024 2023 2024 1
  2025 2023 2037 1
  2026 2023 2030 am   BACKBONE|DICT|INTERRES
  2027 2024 2025 ar
  2028 2024 2029 ar
  2029 2025 2026 ar
  2030 2025 2032 1
  2031 2026 2033 1
  2032 2026 2027 ar
  2033 2027 2028 ar
  2034 2028 2034 1
  2035 2028 2029 ar
  2036 2029 2035 1
  2037 2030 2031 1
  2038 2031 2039 1
  2039 2031 2038 1
  2040 2031 2040 1
  2041 2041 2056 1
  2042 2041 2047 1
  2043 2042 2050 2
  2044 2043 2044 1
  2045 2043 2057 1
  2046 2043 2050 am   BACKBONE|DICT|INTERRES
  2047 2044 2049 ar
  2048 2044 2045 ar
  2049 2045 2046 ar
  2050 2045 2052 1
  2051 2046 2047 ar
  2052 2046 2053 1
  2053 2047 2048 ar
  2054 2048 2049 ar
  2055 2048 2054 1
  2056 2049 2055 1
  2057 2050 2051 1
  2058 2051 2058 1
  2059 2051 2060 1
  2060 2051 2059 1
  2061 2061 2067 1
  2062 2061 2076 1
  2063 2062 2070 2
  2064 2063 2070 am   BACKBONE|DICT|INTERRES
  2065 2063 2064 1
  2066 2063 2077 1
  2067 2064 2069 ar
  2068 2064 2065 ar
  2069 2065 2072 1
  2070 2065 2066 ar
  2071 2066 2073 1
  2072 2066 2067 ar
  2073 2067 2068 ar
  2074 2068 2074 1
  2075 2068 2069 ar
  2076 2069 2075 1
  2077 2070 2071 1
  2078 2071 2078 1
  2079 2071 2080 1
  2080 2071 2079 1
  2081 2081 2096 1
  2082 2081 2087 1
  2083 2082 2090 2
  2084 2083 2097 1
  2085 2083 2090 am   BACKBONE|DICT|INTERRES
  2086 2083 2084 1
  2087 2084 2085 ar
  2088 2084 2089 ar
  2089 2085 2092 1
  2090 2085 2086 ar
  2091 2086 2087 ar
  2092 2086 2093 1
  2093 2087 2088 ar
  2094 2088 2089 ar
  2095 2088 2094 1
  2096 2089 2095 1
  2097 2090 2091 1
  2098 2091 2099 1
  2099 2091 2098 1
  2100 2091 2100 1
  2101 2101 2116 1
  2102 2101 2107 1
  2103 2102 2110 2
  2104 2103 2104 1
  2105 2103 2117 1
  2106 2103 2110 am   BACKBONE|DICT|INTERRES
  2107 2104 2105 ar
  2108 2104 2109 ar
  2109 2105 2106 ar
  2110 2105 2112 1
  2111 2106 2113 1
  2112 2106 2107 ar
  2113 2107 2108 ar
  2114 2108 2114 1
  2115 2108 2109 ar
  2116 2109 2115 1
  2117 2110 2111 1
  2118 2111 2119 1
  2119 2111 2118 1
  2120 2111 2120 1
  2121 2121 2136 1
  2122 2121 2127 1
  2123 2122 2130 2
  2124 2123 2124 1
  2125 2123 2137 1
  2126 2123 2130 am   BACKBONE|DICT|INTERRES
  2127 2124 2129 ar
  2128 2124 2125 ar
  2129 2125 2126 ar
  2130 2125 2132 1
  2131 2126 2127 ar
  2132 2126 2133 1
  2133 2127 2128 ar
  2134 2128 2129 ar
  2135 2128 2134 1
  2136 2129 2135 1
  2137 2130 2131 1
  2138 2131 2138 1
  2139 2131 2140 1
  2140 2131 2139 1
  2141 2141 2147 1
  2142 2141 2156 1
  2143 2142 2150 2
  2144 2143 2150 am   BACKBONE|DICT|INTERRES
  2145 2143 2144 1
  2146 2143 2157 1
  2147 2144 2149 ar
  2148 2144 2145 ar
  2149 2145 2152 1
  2150 2145 2146 ar
  2151 2146 2153 1
  2152 2146 2147 ar
  2153 2147 2148 ar
  2154 2148 2154 1
  2155 2148 2149 ar
  2156 2149 2155 1
  2157 2150 2151 1
  2158 2151 2158 1
  2159 2151 2160 1
  2160 2151 2159 1
  2161 2161 2176 1
  2162 2161 2167 1
  2163 2162 2170 2
  2164 2163 2177 1
  2165 2163 2170 am   BACKBONE|DICT|INTERRES
  2166 2163 2164 1
  2167 2164 2165 ar
  2168 2164 2169 ar
  2169 2165 2172 1
  2170 2165 2166 ar
  2171 2166 2167 ar
  2172 2166 2173 1
  2173 2167 2168 ar
  2174 2168 2169 ar
  2175 2168 2174 1
  2176 2169 2175 1
  2177 2170 2171 1
  2178 2171 2179 1
  2179 2171 2178 1
  2180 2171 2180 1
  2181 2181 2196 1
  2182 2181 2187 1
  2183 2182 2190 2
  2184 2183 2184 1
  2185 2183 2197 1
  2186 2183 2190 am   BACKBONE|DICT|INTERRES
  2187 2184 2185 ar
  2188 2184 2189 ar
  2189 2185 2186 ar
  2190 2185 2192 1
  2191 2186 2193 1
  2192 2186 2187 ar
  2193 2187 2188 ar
  2194 2188 2194 1
  2195 2188 2189 ar
  2196 2189 2195 1
  2197 2190 2191 1
  2198 2191 2199 1
  2199 2191 2198 1
  2200 2191 2200 1
  2201 2201 2216 1
  2202 2201 2207 1
  2203 2202 2210 2
  2204 2203 2204 1
  2205 2203 2217 1
  2206 2203 2210 am   BACKBONE|DICT|INTERRES
  2207 2204 2209 ar
  2208 2204 2205 ar
  2209 2205 2206 ar
  2210 2205 2212 1
  2211 2206 2207 ar
  2212 2206 2213 1
  2213 2207 2208 ar
  2214 2208 2209 ar
  2215 2208 2214 1
  2216 2209 2215 1
  2217 2210 2211 1
  2218 2211 2218 1
  2219 2211 2220 1
  2220 2211 2219 1
  2221 2221 2227 1
  2222 2221 2236 1
  2223 2222 2230 2
  2224 2223 2230 am   BACKBONE|DICT|INTERRES
  2225 2223 2224 1
  2226 2223 2237 1
  2227 2224 2229 ar
  2228 2224 2225 ar
  2229 2225 2232 1
  2230 2225 2226 ar
  2231 2226 2233 1
  2232 2226 2227 ar
  2233 2227 2228 ar
  2234 2228 2234 1
  2235 2228 2229 ar
  2236 2229 2235 1
  2237 2230 2231 1
  2238 2231 2238 1
  2239 2231 2240 1
  2240 2231 2239 1
  2241 2241 2256 1
  2242 2241 2247 1
  2243 2242 2250 2
  2244 2243 2257 1
  2245 2243 2250 am   BACKBONE|DICT|INTERRES
  2246 2243 2244 1
  2247 2244 2245 ar
  2248 2244 2249 ar
  2249 2245 2252 1
  2250 2245 2246 ar
  2251 2246 2247 ar
  2252 2246 2253 1
  2253 2247 2248 ar
  2254 2248 2249 ar
  2255 2248 2254 1
  2256 2249 2255 1
  2257 2250 2251 1
  2258 2251 2259 1
  2259 2251 2258 1
  2260 2251 2260 1
  2261 2261 2276 1
  2262 2261 2267 1
  2263 2262 2270 2
  2264 2263 2264 1
  2265 2263 2277 1
  2266 2263 2270 am   BACKBONE|DICT|INTERRES
  2267 2264 2265 ar
  2268 2264 2269 ar
  2269 2265 2266 ar
  2270 2265 2272 1
  2271 2266 2273 1
  2272 2266 2267 ar
  2273 2267 2268 ar
  2274 2268 2274 1
  2275 2268 2269 ar
  2276 2269 2275 1
  2277 2270 2271 1
  2278 2271 2279 1
  2279 2271 2278 1
  2280 2271 2280 1
  2281 2281 2296 1
  2282 2281 2287 1
  2283 2282 2290 2
  2284 2283 2284 1
  2285 2283 2297 1
  2286 2283 2290 am   BACKBONE|DICT|INTERRES
  2287 2284 2289 ar
  2288 2284 2285 ar
  2289 2285 2286 ar
  2290 2285 2292 1
  2291 2286 2287 ar
  2292 2286 2293 1
  2293 2287 2288 ar
  2294 2288 2289 ar
  2295 2288 2294 1
  2296 2289 2295 1
  2297 2290 2291 1
  2298 2291 2298 1
  2299 2291 2300 1
  2300 2291 2299 1
  2301 2301 2307 1
  2302 2301 2316 1
  2303 2302 2310 2
  2304 2303 2310 am   BACKBONE|DICT|INTERRES
  2305 2303 2304 1
  2306 2303 2317 1
  2307 2304 2309 ar
  2308 2304 2305 ar
  2309 2305 2312 1
  2310 2305 2306 ar
  2311 2306 2313 1
  2312 2306 2307 ar
  2313 2307 2308 ar
  2314 2308 2314 1
  2315 2308 2309 ar
  2316 2309 2315 1
  2317 2310 2311 1
  2318 2311 2318 1
  2319 2311 2320 1
  2320 2311 2319 1
  2321 2321 2336 1
  2322 2321 2327 1
  2323 2322 2330 2
  2324 2323 2337 1
  2325 2323 2330 am   BACKBONE|DICT|INTERRES
  2326 2323 2324 1
  2327 2324 2325 ar
  2328 2324 2329 ar
  2329 2325 2332 1
  2330 2325 2326 ar
  2331 2326 2327 ar
  2332 2326 2333 1
  2333 2327 2328 ar
  2334 2328 2329 ar
  2335 2328 2334 1
  2336 2329 2335 1
  2337 2330 2331 1
  2338 2331 2339 1
  2339 2331 2338 1
  2340 2331 2340 1
  2341 2341 2356 1
  2342 2341 2347 1
  2343 2342 2350 2
  2344 2343 2344 1
  2345 2343 2357 1
  2346 2343 2350 am   BACKBONE|DICT|INTERRES
  2347 2344 2345 ar
  2348 2344 2349 ar
  2349 2345 2346 ar
  2350 2345 2352 1
  2351 2346 2353 1
  2352 2346 2347 ar
  2353 2347 2348 ar
  2354 2348 2354 1
  2355 2348 2349 ar
  2356 2349 2355 1
  2357 2350 2351 1
  2358 2351 2359 1
  2359 2351 2358 1
  2360 2351 2360 1
  2361 2361 2376 1
  2362 2361 2367 1
  2363 2362 2370 2
  2364 2363 2364 1
  2365 2363 2377 1
  2366 2363 2370 am   BACKBONE|DICT|INTERRES
  2367 2364 2369 ar
  2368 2364 2365 ar
  2369 2365 2366 ar
  2370 2365 2372 1
  2371 2366 2367 ar
  2372 2366 2373 1
  2373 2367 2368 ar
  2374 2368 2369 ar
  2375 2368 2374 1
  2376 2369 2375 1
  2377 2370 2371 1
  2378 2371 2378 1
  2379 2371 2380 1
  2380 2371 2379 1
  2381 2381 2387 1
  2382 2381 2396 1
  2383 2382 2390 2
  2384 2383 2390 am   BACKBONE|DICT|INTERRES
  2385 2383 2384 1
  2386 2383 2397 1
  2387 2384 2389 ar
  2388 2384 2385 ar
  2389 2385 2392 1
  2390 2385 2386 ar
  2391 2386 2393 1
  2392 2386 2387 ar
  2393 2387 2388 ar
  2394 2388 2394 1
  2395 2388 2389 ar
  2396 2389 2395 1
  2397 2390 2391 1
  2398 2391 2398 1
  2399 2391 2400 1
  2400 2391 2399 1
  2401 2401 2416 1
  2402 2401 2407 1
  2403 2402 2410 2
  2404 2403 2417 1
  2405 2403 2410 am   BACKBONE|DICT|INTERRES
  2406 2403 2404 1
  2407 2404 2405 ar
  2408 2404 2409 ar
  2409 2405 2412 1
  2410 2405 2406 ar
  2411 2406 2407 ar
  2412 2406 2413 1
  2413 2407 2408 ar
  2414 2408 2409 ar
  2415 2408 2414 1
  2416 2409 2415 1
  2417 2410 2411 1
  2418 2411 2419 1
  2419 2411 2418 1
  2420 2411 2420 1
  2421 2421 2436 1
  2422 2421 2427 1
  2423 2422 2430 2
  2424 2423 2424 1
  2425 2423 2437 1
  2426 2423 2430 am   BACKBONE|DICT|INTERRES
  2427 2424 2425 ar
  2428 2424 2429 ar
  2429 2425 2426 ar
  2430 2425 2432 1
  2431 2426 2433 1
  2432 2426 2427 ar
  2433 2427 2428 ar
  2434 2428 2434 1
  2435 2428 2429 ar
  2436 2429 2435 1
  2437 2430 2431 1
  2438 2431 2439 1
  2439 2431 2438 1
  2440 2431 2440 1
  2441 2441 2456 1
  2442 2441 2447 1
  2443 2442 2450 2
  2444 2443 2444 1
  2445 2443 2457 1
  2446 2443 2450 am   BACKBONE|DICT|INTERRES
  2447 2444 2449 ar
  2448 2444 2445 ar
  2449 2445 2446 ar
  2450 2445 2452 1
  2451 2446 2447 ar
  2452 2446 2453 1
  2453 2447 2448 ar
  2454 2448 2449 ar
  2455 2448 2454 1
  2456 2449 2455 1
  2457 2450 2451 1
  2458 2451 2458 1
  2459 2451 2460 1
  2460 2451 2459 1
  2461 2461 2467 1
  2462 2461 2476 1
  2463 2462 2470 2
  2464 2463 2470 am   BACKBONE|DICT|INTERRES
  2465 2463 2464 1
  2466 2463 2477 1
  2467 2464 2469 ar
  2468 2464 2465 ar
  2469 2465 2472 1
  2470 2465 2466 ar
  2471 2466 2473 1
  2472 2466 2467 ar
  2473 2467 2468 ar
  2474 2468 2474 1
  2475 2468 2469 ar
  2476 2469 2475 1
  2477 2470 2471 1
  2478 2471 2478 1
  2479 2471 2480 1
  2480 2471 2479 1
  2481 2481 2496 1
  2482 2481 2487 1
  2483 2482 2490 2
  2484 2483 2497 1
  2485 2483 2490 am   BACKBONE|DICT|INTERRES
  2486 2483 2484 1
  2487 2484 2485 ar
  2488 2484 2489 ar
  2489 2485 2492 1
  2490 2485 2486 ar
  2491 2486 2487 ar
  2492 2486 2493 1
  2493 2487 2488 ar
  2494 2488 2489 ar
  2495 2488 2494 1
  2496 2489 2495 1
  2497 2490 2491 1
  2498 2491 2499 1
  2499 2491 2498 1
  2500 2491 2500 1
  2501 2501 2516 1
  2502 2501 2507 1
  2503 2502 2510 2
  2504 2503 2504 1
  2505 2503 2517 1
  2506 2503 2510 am   BACKBONE|DICT|INTERRES
  2507 2504 2505 ar
  2508 2504 2509 ar
  2509 2505 2506 ar
  2510 2505 2512 1
  2511 2506 2513 1
  2512 2506 2507 ar
  2513 2507 2508 ar
  2514 2508 2514 1
  2515 2508 2509 ar
  2516 2509 2515 1
  2517 2510 2511 1
  2518 2511 2519 1
  2519 2511 2518 1
  2520 2511 2520 1
  2521 2521 2536 1
  2522 2521 2527 1
  2523 2522 2530 2
  2524 2523 2524 1
  2525 2523 2537 1
  2526 2523 2530 am   BACKBONE|DICT|INTERRES
  2527 2524 2529 ar
  2528 2524 2525 ar
  2529 2525 2526 ar
  2530 2525 2532 1
  2531 2526 2527 ar
  2532 2526 2533 1
  2533 2527 2528 ar
  2534 2528 2529 ar
  2535 2528 2534 1
  2536 2529 2535 1
  2537 2530 2531 1
  2538 2531 2538 1
  2539 2531 2540 1
  2540 2531 2539 1
  2541 2541 2547 1
  2542 2541 2556 1
  2543 2542 2550 2
  2544 2543 2550 am   BACKBONE|DICT|INTERRES
  2545 2543 2544 1
  2546 2543 2557 1
  2547 2544 2549 ar
  2548 2544 2545 ar
  2549 2545 2552 1
  2550 2545 2546 ar
  2551 2546 2553 1
  2552 2546 2547 ar
  2553 2547 2548 ar
  2554 2548 2554 1
  2555 2548 2549 ar
  2556 2549 2555 1
  2557 2550 2551 1
  2558 2551 2558 1
  2559 2551 2560 1
  2560 2551 2559 1
  2561 2561 2576 1
  2562 2561 2567 1
  2563 2562 2570 2
  2564 2563 2577 1
  2565 2563 2570 am   BACKBONE|DICT|INTERRES
  2566 2563 2564 1
  2567 2564 2565 ar
  2568 2564 2569 ar
  2569 2565 2572 1
  2570 2565 2566 ar
  2571 2566 2567 ar
  2572 2566 2573 1
  2573 2567 2568 ar
  2574 2568 2569 ar
  2575 2568 2574 1
  2576 2569 2575 1
  2577 2570 2571 1
  2578 2571 2579 1
  2579 2571 2578 1
  2580 2571 2580 1
  2581 2581 2596 1
  2582 2581 2587 1
  2583 2582 2590 2
  2584 2583 2584 1
  2585 2583 2597 1
  2586 2583 2590 am   BACKBONE|DICT|INTERRES
  2587 2584 2585 ar
  2588 2584 2589 ar
  2589 2585 2586 ar
  2590 2585 2592 1
  2591 2586 2593 1
  2592 2586 2587 ar
  2593 2587 2588 ar
  2594 2588 2594 1
  2595 2588 2589 ar
  2596 2589 2595 1
  2597 2590 2591 1
  2598 2591 2599 1
  2599 2591 2598 1
  2600 2591 2600 1
  2601 2601 2616 1
  2602 2601 2607 1
  2603 2602 2610 2
  2604 2603 2604 1
  2605 2603 2617 1
  2606 2603 2610 am   BACKBONE|DICT|INTERRES
  2607 2604 2609 ar
  2608 2604 2605 ar
  2609 2605 2606 ar
  2610 2605 2612 1
  2611 2606 2607 ar
  2612 2606 2613 1
  2613 2607 2608 ar
  2614 2608 2609 ar
  2615 2608 2614 1
  2616 2609 2615 1
  2617 2610 2611 1
  2618 2611 2618 1
  2619 2611 2620 1
  2620 2611 2619 1
  2621 2621 2627 1
  2622 2621 2636 1
  2623 2622 2630 2
  2624 2623 2630 am   BACKBONE|DICT|INTERRES
  2625 2623 2624 1
  2626 2623 2637 1
  2627 2624 2629 ar
  2628 2624 2625 ar
  2629 2625 2632 1
  2630 2625 2626 ar
  2631 2626 2633 1
  2632 2626 2627 ar
  2633 2627 2628 ar
  2634 2628 2634 1
  2635 2628 2629 ar
  2636 2629 2635 1
  2637 2630 2631 1
  2638 2631 2638 1
  2639 2631 2640 1
  2640 2631 2639 1
  2641 2641 2656 1
  2642 2641 2647 1
  2643 2642 2650 2
  2644 2643 2657 1
  2645 2643 2650 am   BACKBONE|DICT|INTERRES
  2646 2643 2644 1
  2647 2644 2645 ar
  2648 2644 2649 ar
  2649 2645 2652 1
  2650 2645 2646 ar
  2651 2646 2647 ar
  2652 2646 2653 1
  2653 2647 2648 ar
  2654 2648 2649 ar
  2655 2648 2654 1
  2656 2649 2655 1
  2657 2650 2651 1
  2658 2651 2659 1
  2659 2651 2658 1
  2660 2651 2660 1
  2661 2661 2676 1
  2662 2661 2667 1
  2663 2662 2670 2
  2664 2663 2664 1
  2665 2663 2677 1
  2666 2663 2670 am   BACKBONE|DICT|INTERRES
  2667 2664 2665 ar
  2668 2664 2669 ar
  2669 2665 2666 ar
  2670 2665 2672 1
  2671 2666 2673 1
  2672 2666 2667 ar
  2673 2667 2668 ar
  2674 2668 2674 1
  2675 2668 2669 ar
  2676 2669 2675 1
  2677 2670 2671 1
  2678 2671 2679 1
  2679 2671 2678 1
  2680 2671 2680 1
  2681 2681 2696 1
  2682 2681 2687 1
  2683 2682 2690 2
  2684 2683 2684 1
  2685 2683 2697 1
  2686 2683 2690 am   BACKBONE|DICT|INTERRES
  2687 2684 2689 ar
  2688 2684 2685 ar
  2689 2685 2686 ar
  2690 2685 2692 1
  2691 2686 2687 ar
  2692 2686 2693 1
  2693 2687 2688 ar
  2694 2688 2689 ar
  2695 2688 2694 1
  2696 2689 2695 1
  2697 2690 2691 1
  2698 2691 2698 1
  2699 2691 2700 1
  2700 2691 2699 1
  2701 2701 2707 1
  2702 2701 2716 1
  2703 2702 2710 2
  2704 2703 2710 am   BACKBONE|DICT|INTERRES
  2705 2703 2704 1
  2706 2703 2717 1
  2707 2704 2709 ar
  2708 2704 2705 ar
  2709 2705 2712 1
  2710 2705 2706 ar
  2711 2706 2713 1
  2712 2706 2707 ar
  2713 2707 2708 ar
  2714 2708 2714 1
  2715 2708 2709 ar
  2716 2709 2715 1
  2717 2710 2711 1
  2718 2711 2718 1
  2719 2711 2720 1
  2720 2711 2719 1
  2721 2721 2736 1
  2722 2721 2727 1
  2723 2722 2730 2
  2724 2723 2737 1
  2725 2723 2730 am   BACKBONE|DICT|INTERRES
  2726 2723 2724 1
  2727 2724 2725 ar
  2728 2724 2729 ar
  2729 2725 2732 1
  2730 2725 2726 ar
  2731 2726 2727 ar
  2732 2726 2733 1
  2733 2727 2728 ar
  2734 2728 2729 ar
  2735 2728 2734 1
  2736 2729 2735 1
  2737 2730 2731 1
  2738 2731 2739 1
  2739 2731 2738 1
  2740 2731 2740 1
  2741 2741 2756 1
  2742 2741 2747 1
  2743 2742 2750 2
  2744 2743 2744 1
  2745 2743 2757 1
  2746 2743 2750 am   BACKBONE|DICT|INTERRES
  2747 2744 2745 ar
  2748 2744 2749 ar
  2749 2745 2746 ar
  2750 2745 2752 1
  2751 2746 2753 1
  2752 2746 2747 ar
  2753 2747 2748 ar
  2754 2748 2754 1
  2755 2748 2749 ar
  2756 2749 2755 1
  2757 2750 2751 1
  2758 2751 2759 1
  2759 2751 2758 1
  2760 2751 2760 1
  2761 2761 2776 1
  2762 2761 2767 1
  2763 2762 2770 2
  2764 2763 2764 1
  2765 2763 2777 1
  2766 2763 2770 am   BACKBONE|DICT|INTERRES
  2767 2764 2769 ar
  2768 2764 2765 ar
  2769 2765 2766 ar
  2770 2765 2772 1
  2771 2766 2767 ar
  2772 2766 2773 1
  2773 2767 2768 ar
  2774 2768 2769 ar
  2775 2768 2774 1
  2776 2769 2775 1
  2777 2770 2771 1
  2778 2771 2778 1
  2779 2771 2780 1
  2780 2771 2779 1
  2781 2781 2787 1
  2782 2781 2796 1
  2783 2782 2790 2
  2784 2783 2790 am   BACKBONE|DICT|INTERRES
  2785 2783 2784 1
  2786 2783 2797 1
  2787 2784 2789 ar
  2788 2784 2785 ar
  2789 2785 2792 1
  2790 2785 2786 ar
  2791 2786 2793 1
  2792 2786 2787 ar
  2793 2787 2788 ar
  2794 2788 2794 1
  2795 2788 2789 ar
  2796 2789 2795 1
  2797 2790 2791 1
  2798 2791 2798 1
  2799 2791 2800 1
  2800 2791 2799 1
  2801 2801 2816 1
  2802 2801 2807 1
  2803 2802 2810 2
  2804 2803 2817 1
  2805 2803 2810 am   BACKBONE|DICT|INTERRES
  2806 2803 2804 1
  2807 2804 2805 ar
  2808 2804 2809 ar
  2809 2805 2812 1
  2810 2805 2806 ar
  2811 2806 2807 ar
  2812 2806 2813 1
  2813 2807 2808 ar
  2814 2808 2809 ar
  2815 2808 2814 1
  2816 2809 2815 1
  2817 2810 2811 1
  2818 2811 2819 1
  2819 2811 2818 1
  2820 2811 2820 1
  2821 2821 2836 1
  2822 2821 2827 1
  2823 2822 2830 2
  2824 2823 2824 1
  2825 2823 2837 1
  2826 2823 2830 am   BACKBONE|DICT|INTERRES
  2827 2824 2825 ar
  2828 2824 2829 ar
  2829 2825 2826 ar
  2830 2825 2832 1
  2831 2826 2833 1
  2832 2826 2827 ar
  2833 2827 2828 ar
  2834 2828 2834 1
  2835 2828 2829 ar
  2836 2829 2835 1
  2837 2830 2831 1
  2838 2831 2839 1
  2839 2831 2838 1
  2840 2831 2840 1
  2841 2841 2856 1
  2842 2841 2847 1
  2843 2842 2850 2
  2844 2843 2844 1
  2845 2843 2857 1
  2846 2843 2850 am   BACKBONE|DICT|INTERRES
  2847 2844 2849 ar
  2848 2844 2845 ar
  2849 2845 2846 ar
  2850 2845 2852 1
  2851 2846 2847 ar
  2852 2846 2853 1
  2853 2847 2848 ar
  2854 2848 2849 ar
  2855 2848 2854 1
  2856 2849 2855 1
  2857 2850 2851 1
  2858 2851 2858 1
  2859 2851 2860 1
  2860 2851 2859 1
  2861 2861 2867 1
  2862 2861 2876 1
  2863 2862 2870 2
  2864 2863 2870 am   BACKBONE|DICT|INTERRES
  2865 2863 2864 1
  2866 2863 2877 1
  2867 2864 2869 ar
  2868 2864 2865 ar
  2869 2865 2872 1
  2870 2865 2866 ar
  2871 2866 2873 1
  2872 2866 2867 ar
  2873 2867 2868 ar
  2874 2868 2874 1
  2875 2868 2869 ar
  2876 2869 2875 1
  2877 2870 2871 1
  2878 2871 2878 1
  2879 2871 2880 1
  2880 2871 2879 1
  2881 2881 2896 1
  2882 2881 2887 1
  2883 2882 2890 2
  2884 2883 2897 1
  2885 2883 2890 am   BACKBONE|DICT|INTERRES
  2886 2883 2884 1
  2887 2884 2885 ar
  2888 2884 2889 ar
  2889 2885 2892 1
  2890 2885 2886 ar
  2891 2886 2887 ar
  2892 2886 2893 1
  2893 2887 2888 ar
  2894 2888 2889 ar
  2895 2888 2894 1
  2896 2889 2895 1
  2897 2890 2891 1
  2898 2891 2899 1
  2899 2891 2898 1
  2900 2891 2900 1
  2901 2901 2916 1
  2902 2901 2907 1
  2903 2902 2910 2
  2904 2903 2904 1
  2905 2903 2917 1
  2906 2903 2910 am   BACKBONE|DICT|INTERRES
  2907 2904 2905 ar
  2908 2904 2909 ar
  2909 2905 2906 ar
  2910 2905 2912 1
  2911 2906 2913 1
  2912 2906 2907 ar
  2913 2907 2908 ar
  2914 2908 2914 1
  2915 2908 2909 ar
  2916 2909 2915 1
  2917 2910 2911 1
  2918 2911 2919 1
  2919 2911 2918 1
  2920 2911 2920 1
  2921 2921 2936 1
  2922 2921 2927 1
  2923 2922 2930 2
  2924 2923 2924 1
  2925 2923 2937 1
  2926 2923 2930 am   BACKBONE|DICT|INTERRES
  2927 2924 2929 ar
  2928 2924 2925 ar
  2929 2925 2926 ar
  2930 2925 2932 1
  2931 2926 2927 ar
  2932 2926 2933 1
  2933 2927 2928 ar
  2934 2928 2929 ar
  2935 2928 2934 1
  2936 2929 2935 1
  2937 2930 2931 1
  2938 2931 2938 1
  2939 2931 2940 1
  2940 2931 2939 1
  2941 2941 2947 1
  2942 2941 2956 1
  2943 2942 2950 2
  2944 2943 2950 am   BACKBONE|DICT|INTERRES
  2945 2943 2944 1
  2946 2943 2957 1
  2947 2944 2949 ar
  2948 2944 2945 ar
  2949 2945 2952 1
  2950 2945 2946 ar
  2951 2946 2953 1
  2952 2946 2947 ar
  2953 2947 2948 ar
  2954 2948 2954 1
  2955 2948 2949 ar
  2956 2949 2955 1
  2957 2950 2951 1
  2958 2951 2958 1
  2959 2951 2960 1
  2960 2951 2959 1
  2961 2961 2976 1
  2962 2961 2967 1
  2963 2962 2970 2
  2964 2963 2977 1
  2965 2963 2970 am   BACKBONE|DICT|INTERRES
  2966 2963 2964 1
  2967 2964 2965 ar
  2968 2964 2969 ar
  2969 2965 2972 1
  2970 2965 2966 ar
  2971 2966 2967 ar
  2972 2966 2973 1
  2973 2967 2968 ar
  2974 2968 2969 ar
  2975 2968 2974 1
  2976 2969 2975 1
  2977 2970 2971 1
  2978 2971 2979 1
  2979 2971 2978 1
  2980 2971 2980 1
  2981 2981 2996 1
  2982 2981 2987 1
  2983 2982 2990 2
  2984 2983 2984 1
  2985 2983 2997 1
  2986 2983 2990 am   BACKBONE|DICT|INTERRES
  2987 2984 2985 ar
  2988 2984 2989 ar
  2989 2985 2986 ar
  2990 2985 2992 1
  2991 2986 2993 1
  2992 2986 2987 ar
  2993 2987 2988 ar
  2994 2988 2994 1
  2995 2988 2989 ar
  2996 2989 2995 1
  2997 2990 2991 1
  2998 2991 2999 1
  2999 2991 2998 1
  3000 2991 3000 1
  3001 3001 3016 1
  3002 3001 3007 1
  3003 3002 3010 2
  3004 3003 3004 1
  3005 3003 3017 1
  3006 3003 3010 am   BACKBONE|DICT|INTERRES
  3007 3004 3009 ar
  3008 3004 3005 ar
  3009 3005 3006 ar
  3010 3005 3012 1
  3011 3006 3007 ar
  3012 3006 3013 1
  3013 3007 3008 ar
  3014 3008 3009 ar
  3015 3008 3014 1
  3016 3009 3015 1
  3017 3010 3011 1
  3018 3011 3018 1
  3019 3011 3020 1
  3020 3011 3019 1
  3021 3021 3027 1
  3022 3021 3036 1
  3023 3022 3030 2
  3024 3023 3030 am   BACKBONE|DICT|INTERRES
  3025 3023 3024 1
  3026 3023 3037 1
  3027 3024 3029 ar
  3028 3024 3025 ar
  3029 3025 3032 1
  3030 3025 3026 ar
  3031 3026 3033 1
  3032 3026 3027 ar
  3033 3027 3028 ar
  3034 3028 3034 1
  3035 3028 3029 ar
  3036 3029 3035 1
  3037 3030 3031 1
  3038 3031 3038 1
  3039 3031 3040 1
  3040 3031 3039 1
  3041 3041 3056 1
  3042 3041 3047 1
  3043 3042 3050 2
  3044 3043 3057 1
  3045 3043 3050 am   BACKBONE|DICT|INTERRES
  3046 3043 3044 1
  3047 3044 3045 ar
  3048 3044 3049 ar
  3049 3045 3052 1
  3050 3045 3046 ar
  3051 3046 3047 ar
  3052 3046 3053 1
  3053 3047 3048 ar
  3054 3048 3049 ar
  3055 3048 3054 1
  3056 3049 3055 1
  3057 3050 3051 1
  3058 3051 3059 1
  3059 3051 3058 1
  3060 3051 3060 1
  3061 3061 3076 1
  3062 3061 3067 1
  3063 3062 3070 2
  3064 3063 3064 1
  3065 3063 3077 1
  3066 3063 3070 am   BACKBONE|DICT|INTERRES
  3067 3064 3065 ar
  3068 3064 3069 ar
  3069 3065 3066 ar
  3070 3065 3072 1
  3071 3066 3073 1
  3072 3066 3067 ar
  3073 3067 3068 ar
  3074 3068 3074 1
  3075 3068 3069 ar
  3076 3069 3075 1
  3077 3070 3071 1
  3078 3071 3079 1
  3079 3071 3078 1
  3080 3071 3080 1
  3081 3081 3096 1
  3082 3081 3087 1
  3083 3082 3090 2
  3084 3083 3084 1
  3085 3083 3097 1
  3086 3083 3090 am   BACKBONE|DICT|INTERRES
  3087 3084 3089 ar
  3088 3084 3085 ar
  3089 3085 3086 ar
  3090 3085 3092 1
  3091 3086 3087 ar
  3092 3086 3093 1
  3093 3087 3088 ar
  3094 3088 3089 ar
  3095 3088 3094 1
  3096 3089 3095 1
  3097 3090 3091 1
  3098 3091 3098 1
  3099 3091 3100 1
  3100 3091 3099 1
  3101 3101 3107 1
  3102 3101 3116 1
  3103 3102 3110 2
  3104 3103 3110 am   BACKBONE|DICT|INTERRES
  3105 3103 3104 1
  3106 3103 3117 1
  3107 3104 3109 ar
  3108 3104 3105 ar
  3109 3105 3112 1
  3110 3105 3106 ar
  3111 3106 3113 1
  3112 3106 3107 ar
  3113 3107 3108 ar
  3114 3108 3114 1
  3115 3108 3109 ar
  3116 3109 3115 1
  3117 3110 3111 1
  3118 3111 3118 1
  3119 3111 3120 1
  3120 3111 3119 1
  3121 3121 3136 1
  3122 3121 3127 1
  3123 3122 3130 2
  3124 3123 3137 1
  3125 3123 3130 am   BACKBONE|DICT|INTERRES
  3126 3123 3124 1
  3127 3124 3125 ar
  3128 3124 3129 ar
  3129 3125 3132 1
  3130 3125 3126 ar
  3131 3126 3127 ar
  3132 3126 3133 1
  3133 3127 3128 ar
  3134 3128 3129 ar
  3135 3128 3134 1
  3136 3129 3135 1
  3137 3130 3131 1
  3138 3131 3139 1
  3139 3131 3138 1
  3140 3131 3140 1
  3141 3141 3156 1
  3142 3141 3147 1
  3143 3142 3150 2
  3144 3143 3144 1
  3145 3143 3157 1
  3146 3143 3150 am   BACKBONE|DICT|INTERRES
  3147 3144 3145 ar
  3148 3144 3149 ar
  3149 3145 3146 ar
  3150 3145 3152 1
  3151 3146 3153 1
  3152 3146 3147 ar
  3153 3147 3148 ar
  3154 3148 3154 1
  3155 3148 3149 ar
  3156 3149 3155 1
  3157 3150 3151 1
  3158 3151 3159 1
  3159 3151 3158 1
  3160 3151 3160 1
  3161 3161 3176 1
  3162 3161 3167 1
  3163 3162 3170 2
  3164 3163 3164 1
  3165 3163 3177 1
  3166 3163 3170 am   BACKBONE|DICT|INTERRES
  3167 3164 3169 ar
  3168 3164 3165 ar
  3169 3165 3166 ar
  3170 3165 3172 1
  3171 3166 3167 ar
  3172 3166 3173 1
  3173 3167 3168 ar
  3174 3168 3169 ar
  3175 3168 3174 1
  3176 3169 3175 1
  3177 3170 3171 1
  3178 3171 3178 1
  3179 3171 3180 1
  3180 3171 3179 1
  3181 3181 3187 1
  3182 3181 3196 1
  3183 3182 3190 2
  3184 3183 3190 am   BACKBONE|DICT|INTERRES
  3185 3183 3184 1
  3186 3183 3197 1
  3187 3184 3189 ar
  3188 3184 3185 ar
  3189 3185 3192 1
  3190 3185 3186 ar
  3191 3186 3193 1
  3192 3186 3187 ar
  3193 3187 3188 ar
  3194 3188 3194 1
  3195 3188 3189 ar
  3196 3189 3195 1
  3197 3190 3191 1
  3198 3191 3198 1
  3199 3191 3200 1
  3200 3191 3199 1
  3201 3201 3216 1
  3202 3201 3207 1
  3203 3202 3210 2
  3204 3203 3217 1
  3205 3203 3210 am   BACKBONE|DICT|INTERRES
  3206 3203 3204 1
  3207 3204 3205 ar
  3208 3204 3209 ar
  3209 3205 3212 1
  3210 3205 3206 ar
  3211 3206 3207 ar
  3212 3206 3213 1
  3213 3207 3208 ar
  3214 3208 3209 ar
  3215 3208 3214 1
  3216 3209 3215 1
  3217 3210 3211 1
  3218 3211 3219 1
  3219 3211 3218 1
  3220 3211 3220 1
  3221 3221 3236 1
  3222 3221 3227 1
  3223 3222 3230 2
  3224 3223 3224 1
  3225 3223 3237 1
  3226 3223 3230 am   BACKBONE|DICT|INTERRES
  3227 3224 3225 ar
  3228 3224 3229 ar
  3229 3225 3226 ar
  3230 3225 3232 1
  3231 3226 3233 1
  3232 3226 3227 ar
  3233 3227 3228 ar
  3234 3228 3234 1
  3235 3228 3229 ar
  3236 3229 3235 1
  3237 3230 3231 1
  3238 3231 3239 1
  3239 3231 3238 1
  3240 3231 3240 1
  3241 3241 3256 1
  3242 3241 3247 1
  3243 3242 3250 2
  3244 3243 3244 1
  3245 3243 3257 1
  3246 3243 3250 am   BACKBONE|DICT|INTERRES
  3247 3244 3249 ar
  3248 3244 3245 ar
  3249 3245 3246 ar
  3250 3245 3252 1
  3251 3246 3247 ar
  3252 3246 3253 1
  3253 3247 3248 ar
  3254 3248 3249 ar
  3255 3248 3254 1
  3256 3249 3255 1
  3257 3250 3251 1
  3258 3251 3258 1
  3259 3251 3260 1
  3260 3251 3259 1
  3261 3261 3267 1
  3262 3261 3276 1
  3263 3262 3270 2
  3264 3263 3270 am   BACKBONE|DICT|INTERRES
  3265 3263 3264 1
  3266 3263 3277 1
  3267 3264 3269 ar
  3268 3264 3265 ar
  3269 3265 3272 1
  3270 3265 3266 ar
  3271 3266 3273 1
  3272 3266 3267 ar
  3273 3267 3268 ar
  3274 3268 3274 1
  3275 3268 3269 ar
  3276 3269 3275 1
  3277 3270 3271 1
  3278 3271 3278 1
  3279 3271 3280 1
  3280 3271 3279 1
  3281 3281 3296 1
  3282 3281 3287 1
  3283 3282 3290 2
  3284 3283 3297 1
  3285 3283 3290 am   BACKBONE|DICT|INTERRES
  3286 3283 3284 1
  3287 3284 3285 ar
  3288 3284 3289 ar
  3289 3285 3292 1
  3290 3285 3286 ar
  3291 3286 3287 ar
  3292 3286 3293 1
  3293 3287 3288 ar
  3294 3288 3289 ar
  3295 3288 3294 1
  3296 3289 3295 1
  3297 3290 3291 1
  3298 3291 3299 1
  3299 3291 3298 1
  3300 3291 3300 1
  3301 3301 3316 1
  3302 3301 3307 1
  3303 3302 3310 2
  3304 3303 3304 1
  3305 3303 3317 1
  3306 3303 3310 am   BACKBONE|DICT|INTERRES
  3307 3304 3305 ar
  3308 3304 3309 ar
  3309 3305 3306 ar
  3310 3305 3312 1
  3311 3306 3313 1
  3312 3306 3307 ar
  3313 3307 3308 ar
  3314 3308 3314 1
  3315 3308 3309 ar
  3316 3309 3315 1
  3317 3310 3311 1
  3318 3311 3319 1
  3319 3311 3318 1
  3320 3311 3320 1
  3321 3321 3336 1
  3322 3321 3327 1
  3323 3322 3330 2
  3324 3323 3324 1
  3325 3323 3337 1
  3326 3323 3330 am   BACKBONE|DICT|INTERRES
  3327 3324 3329 ar
  3328 3324 3325 ar
  3329 3325 3326 ar
  3330 3325 3332 1
  3331 3326 3327 ar
  3332 3326 3333 1
  3333 3327 3328 ar
  3334 3328 3329 ar
  3335 3328 3334 1
  3336 3329 3335 1
  3337 3330 3331 1
  3338 3331 3338 1
  3339 3331 3340 1
  3340 3331 3339 1
  3341 3341 3347 1
  3342 3341 3356 1
  3343 3342 3350 2
  3344 3343 3350 am   BACKBONE|DICT|INTERRES
  3345 3343 3344 1
  3346 3343 3357 1
  3347 3344 3349 ar
  3348 3344 3345 ar
  3349 3345 3352 1
  3350 3345 3346 ar
  3351 3346 3353 1
  3352 3346 3347 ar
  3353 3347 3348 ar
  3354 3348 3354 1
  3355 3348 3349 ar
  3356 3349 3355 1
  3357 3350 3351 1
  3358 3351 3358 1
  3359 3351 3360 1
  3360 3351 3359 1
  3361 3361 3376 1
  3362 3361 3367 1
  3363 3362 3370 2
  3364 3363 3377 1
  3365 3363 3370 am   BACKBONE|DICT|INTERRES
  3366 3363 3364 1
  3367 3364 3365 ar
  3368 3364 3369 ar
  3369 3365 3372 1
  3370 3365 3366 ar
  3371 3366 3367 ar
  3372 3366 3373 1
  3373 3367 3368 ar
  3374 3368 3369 ar
  3375 3368 3374 1
  3376 3369 3375 1
  3377 3370 3371 1
  3378 3371 3379 1
  3379 3371 3378 1
  3380 3371 3380 1
  3381 3381 3396 1
  3382 3381 3387 1
  3383 3382 3390 2
  3384 3383 3384 1
  3385 3383 3397 1
  3386 3383 3390 am   BACKBONE|DICT|INTERRES
  3387 3384 3385 ar
  3388 3384 3389 ar
  3389 3385 3386 ar
  3390 3385 3392 1
  3391 3386 3393 1
  3392 3386 3387 ar
  3393 3387 3388 ar
  3394 3388 3394 1
  3395 3388 3389 ar
  3396 3389 3395 1
  3397 3390 3391 1
  3398 3391 3399 1
  3399 3391 3398 1
  3400 3391 3400 1
  3401 3401 3416 1
  3402 3401 3407 1
  3403 3402 3410 2
  3404 3403 3404 1
  3405 3403 3417 1
  3406 3403 3410 am   BACKBONE|DICT|INTERRES
  3407 3404 3409 ar
  3408 3404 3405 ar
  3409 3405 3406 ar
  3410 3405 3412 1
  3411 3406 3407 ar
  3412 3406 3413 1
  3413 3407 3408 ar
  3414 3408 3409 ar
  3415 3408 3414 1
  3416 3409 3415 1
  3417 3410 3411 1
  3418 3411 3418 1
  3419 3411 3420 1
  3420 3411 3419 1
  3421 3421 3427 1
  3422 3421 3436 1
  3423 3422 3430 2
  3424 3423 3430 am   BACKBONE|DICT|INTERRES
  3425 3423 3424 1
  3426 3423 3437 1
  3427 3424 3429 ar
  3428 3424 3425 ar
  3429 3425 3432 1
  3430 3425 3426 ar
  3431 3426 3433 1
  3432 3426 3427 ar
  3433 3427 3428 ar
  3434 3428 3434 1
  3435 3428 3429 ar
  3436 3429 3435 1
  3437 3430 3431 1
  3438 3431 3438 1
  3439 3431 3440 1
  3440 3431 3439 1
  3441 3441 3456 1
  3442 3441 3447 1
  3443 3442 3450 2
  3444 3443 3457 1
  3445 3443 3450 am   BACKBONE|DICT|INTERRES
  3446 3443 3444 1
  3447 3444 3445 ar
  3448 3444 3449 ar
  3449 3445 3452 1
  3450 3445 3446 ar
  3451 3446 3447 ar
  3452 3446 3453 1
  3453 3447 3448 ar
  3454 3448 3449 ar
  3455 3448 3454 1
  3456 3449 3455 1
  3457 3450 3451 1
  3458 3451 3459 1
  3459 3451 3458 1
  3460 3451 3460 1
  3461 3461 3476 1
  3462 3461 3467 1
  3463 3462 3470 2
  3464 3463 3464 1
  3465 3463 3477 1
  3466 3463 3470 am   BACKBONE|DICT|INTERRES
  3467 3464 3465 ar
  3468 3464 3469 ar
  3469 3465 3466 ar
  3470 3465 3472 1
  3471 3466 3473 1
  3472 3466 3467 ar
  3473 3467 3468 ar
  3474 3468 3474 1
  3475 3468 3469 ar
  3476 3469 3475 1
  3477 3470 3471 1
  3478 3471 3479 1
  3479 3471 3478 1
  3480 3471 3480 1
  3481 3481 3496 1
  3482 3481 3487 1
  3483 3482 3490 2
  3484 3483 3484 1
  3485 3483 3497 1
  3486 3483 3490 am   BACKBONE|DICT|INTERRES
  3487 3484 3489 ar
  3488 3484 3485 ar
  3489 3485 3486 ar
  3490 3485 3492 1
  3491 3486 3487 ar
  3492 3486 3493 1
  3493 3487 3488 ar
  3494 3488 3489 ar
  3495 3488 3494 1
  3496 3489 3495 1
  3497 3490 3491 1
  3498 3491 3498 1
  3499 3491 3500 1
  3500 3491 3499 1
  3501 3501 3507 1
  3502 3501 3516 1
  3503 3502 3510 2
  3504 3503 3510 am   BACKBONE|DICT|INTERRES
  3505 3503 3504 1
  3506 3503 3517 1
  3507 3504 3509 ar
  3508 3504 3505 ar
  3509 3505 3512 1
  3510 3505 3506 ar
  3511 3506 3513 1
  3512 3506 3507 ar
  3513 3507 3508 ar
  3514 3508 3514 1
  3515 3508 3509 ar
  3516 3509 3515 1
  3517 3510 3511 1
  3518 3511 3518 1
  3519 3511 3520 1
  3520 3511 3519 1
  3521 3521 3536 1
  3522 3521 3527 1
  3523 3522 3530 2
  3524 3523 3537 1
  3525 3523 3530 am   BACKBONE|DICT|INTERRES
  3526 3523 3524 1
  3527 3524 3525 ar
  3528 3524 3529 ar
  3529 3525 3532 1
  3530 3525 3526 ar
  3531 3526 3527 ar
  3532 3526 3533 1
  3533 3527 3528 ar
  3534 3528 3529 ar
  3535 3528 3534 1
  3536 3529 3535 1
  3537 3530 3531 1
  3538 3531 3539 1
  3539 3531 3538 1
  3540 3531 3540 1
  3541 3541 3556 1
  3542 3541 3547 1
  3543 3542 3550 2
  3544 3543 3544 1
  3545 3543 3557 1
  3546 3543 3550 am   BACKBONE|DICT|INTERRES
  3547 3544 3545 ar
  3548 3544 3549 ar
  3549 3545 3546 ar
  3550 3545 3552 1
  3551 3546 3553 1
  3552 3546 3547 ar
  3553 3547 3548 ar
  3554 3548 3554 1
  3555 3548 3549 ar
  3556 3549 3555 1
  3557 3550 3551 1
  3558 3551 3559 1
  3559 3551 3558 1
  3560 3551 3560 1
  3561 3561 3576 1
  3562 3561 3567 1
  3563 3562 3570 2
  3564 3563 3564 1
  3565 3563 3577 1
  3566 3563 3570 am   BACKBONE|DICT|INTERRES
  3567 3564 3569 ar
  3568 3564 3565 ar
  3569 3565 3566 ar
  3570 3565 3572 1
  3571 3566 3567 ar
  3572 3566 3573 1
  3573 3567 3568 ar
  3574 3568 3569 ar
  3575 3568 3574 1
  3576 3569 3575 1
  3577 3570 3571 1
  3578 3571 3578 1
  3579 3571 3580 1
  3580 3571 3579 1
  3581 3581 3587 1
  3582 3581 3596 1
  3583 3582 3590 2
  3584 3583 3590 am   BACKBONE|DICT|INTERRES
  3585 3583 3584 1
  3586 3583 3597 1
  3587 3584 3589 ar
  3588 3584 3585 ar
  3589 3585 3592 1
  3590 3585 3586 ar
  3591 3586 3593 1
  3592 3586 3587 ar
  3593 3587 3588 ar
  3594 3588 3594 1
  3595 3588 3589 ar
  3596 3589 3595 1
  3597 3590 3591 1
  3598 3591 3598 1
  3599 3591 3600 1
  3600 3591 3599 1
  3601 3601 3616 1
  3602 3601 3607 1
  3603 3602 3610 2
  3604 3603 3617 1
  3605 3603 3610 am   BACKBONE|DICT|INTERRES
  3606 3603 3604 1
  3607 3604 3605 ar
  3608 3604 3609 ar
  3609 3605 3612 1
  3610 3605 3606 ar
  3611 3606 3607 ar
  3612 3606 3613 1
  3613 3607 3608 ar
  3614 3608 3609 ar
  3615 3608 3614 1
  3616 3609 3615 1
  3617 3610 3611 1
  3618 3611 3619 1
  3619 3611 3618 1
  3620 3611 3620 1
  3621 3621 3636 1
  3622 3621 3627 1
  3623 3622 3630 2
  3624 3623 3624 1
  3625 3623 3637 1
  3626 3623 3630 am   BACKBONE|DICT|INTERRES
  3627 3624 3625 ar
  3628 3624 3629 ar
  3629 3625 3626 ar
  3630 3625 3632 1
  3631 3626 3633 1
  3632 3626 3627 ar
  3633 3627 3628 ar
  3634 3628 3634 1
  3635 3628 3629 ar
  3636 3629 3635 1
  3637 3630 3631 1
  3638 3631 3639 1
  3639 3631 3638 1
  3640 3631 3640 1
  3641 3641 3656 1
  3642 3641 3647 1
  3643 3642 3650 2
  3644 3643 3644 1
  3645 3643 3657 1
  3646 3643 3650 am   BACKBONE|DICT|INTERRES
  3647 3644 3649 ar
  3648 3644 3645 ar
  3649 3645 3646 ar
  3650 3645 3652 1
  3651 3646 3647 ar
  3652 3646 3653 1
  3653 3647 3648 ar
  3654 3648 3649 ar
  3655 3648 3654 1
  3656 3649 3655 1
  3657 3650 3651 1
  3658 3651 3658 1
  3659 3651 3660 1
  3660 3651 3659 1
  3661 3661 3667 1
  3662 3661 3676 1
  3663 3662 3670 2
  3664 3663 3670 am   BACKBONE|DICT|INTERRES
  3665 3663 3664 1
  3666 3663 3677 1
  3667 3664 3669 ar
  3668 3664 3665 ar
  3669 3665 3672 1
  3670 3665 3666 ar
  3671 3666 3673 1
  3672 3666 3667 ar
  3673 3667 3668 ar
  3674 3668 3674 1
  3675 3668 3669 ar
  3676 3669 3675 1
  3677 3670 3671 1
  3678 3671 3678 1
  3679 3671 3680 1
  3680 3671 3679 1
  3681 3681 3696 1
  3682 3681 3687 1
  3683 3682 3690 2
  3684 3683 3697 1
  3685 3683 3690 am   BACKBONE|DICT|INTERRES
  3686 3683 3684 1
  3687 3684 3685 ar
  3688 3684 3689 ar
  3689 3685 3692 1
  3690 3685 3686 ar
  3691 3686 3687 ar
  3692 3686 3693 1
  3693 3687 3688 ar
  3694 3688 3689 ar
  3695 3688 3694 1
  3696 3689 3695 1
  3697 3690 3691 1
  3698 3691 3699 1
  3699 3691 3698 1
  3700 3691 3700 1
  3701 3701 3716 1
  3702 3701 3707 1
  3703 3702 3710 2
  3704 3703 3704 1
  3705 3703 3717 1
  3706 3703 3710 am   BACKBONE|DICT|INTERRES
  3707 3704 3705 ar
  3708 3704 3709 ar
  3709 3705 3706 ar
  3710 3705 3712 1
  3711 3706 3713 1
  3712 3706 3707 ar
  3713 3707 3708 ar
  3714 3708 3714 1
  3715 3708 3709 ar
  3716 3709 3715 1
  3717 3710 3711 1
  3718 3711 3719 1
  3719 3711 3718 1
  3720 3711 3720 1
  3721 3721 3736 1
  3722 3721 3727 1
  3723 3722 3730 2
  3724 3723 3724 1
  3725 3723 3737 1
  3726 3723 3730 am   BACKBONE|DICT|INTERRES
  3727 3724 3729 ar
  3728 3724 3725 ar
  3729 3725 3726 ar
  3730 3725 3732 1
  3731 3726 3727 ar
  3732 3726 3733 1
  3733 3727 3728 ar
  3734 3728 3729 ar
  3735 3728 3734 1
  3736 3729 3735 1
  3737 3730 3731 1
  3738 3731 3738 1
  3739 3731 3740 1
  3740 3731 3739 1
  3741 3741 3747 1
  3742 3741 3756 1
  3743 3742 3750 2
  3744 3743 3750 am   BACKBONE|DICT|INTERRES
  3745 3743 3744 1
  3746 3743 3757 1
  3747 3744 3749 ar
  3748 3744 3745 ar
  3749 3745 3752 1
  3750 3745 3746 ar
  3751 3746 3753 1
  3752 3746 3747 ar
  3753 3747 3748 ar
  3754 3748 3754 1
  3755 3748 3749 ar
  3756 3749 3755 1
  3757 3750 3751 1
  3758 3751 3758 1
  3759 3751 3760 1
  3760 3751 3759 1
  3761 3761 3776 1
  3762 3761 3767 1
  3763 3762 3770 2
  3764 3763 3777 1
  3765 3763 3770 am   BACKBONE|DICT|INTERRES
  3766 3763 3764 1
  3767 3764 3765 ar
  3768 3764 3769 ar
  3769 3765 3772 1
  3770 3765 3766 ar
  3771 3766 3767 ar
  3772 3766 3773 1
  3773 3767 3768 ar
  3774 3768 3769 ar
  3775 3768 3774 1
  3776 3769 3775 1
  3777 3770 3771 1
  3778 3771 3779 1
  3779 3771 3778 1
  3780 3771 3780 1
  3781 3781 3796 1
  3782 3781 3787 1
  3783 3782 3790 2
  3784 3783 3784 1
  3785 3783 3797 1
  3786 3783 3790 am   BACKBONE|DICT|INTERRES
  3787 3784 3785 ar
  3788 3784 3789 ar
  3789 3785 3786 ar
  3790 3785 3792 1
  3791 3786 3793 1
  3792 3786 3787 ar
  3793 3787 3788 ar
  3794 3788 3794 1
  3795 3788 3789 ar
  3796 3789 3795 1
  3797 3790 3791 1
  3798 3791 3799 1
  3799 3791 3798 1
  3800 3791 3800 1
  3801 3801 3816 1
  3802 3801 3807 1
  3803 3802 3810 2
  3804 3803 3804 1
  3805 3803 3817 1
  3806 3803 3810 am   BACKBONE|DICT|INTERRES
  3807 3804 3809 ar
  3808 3804 3805 ar
  3809 3805 3806 ar
  3810 3805 3812 1
  3811 3806 3807 ar
  3812 3806 3813 1
  3813 3807 3808 ar
  3814 3808 3809 ar
  3815 3808 3814 1
  3816 3809 3815 1
  3817 3810 3811 1
  3818 3811 3818 1
  3819 3811 3820 1
  3820 3811 3819 1
  3821 3821 3827 1
  3822 3821 3836 1
  3823 3822 3830 2
  3824 3823 3830 am   BACKBONE|DICT|INTERRES
  3825 3823 3824 1
  3826 3823 3837 1
  3827 3824 3829 ar
  3828 3824 3825 ar
  3829 3825 3832 1
  3830 3825 3826 ar
  3831 3826 3833 1
  3832 3826 3827 ar
  3833 3827 3828 ar
  3834 3828 3834 1
  3835 3828 3829 ar
  3836 3829 3835 1
  3837 3830 3831 1
  3838 3831 3838 1
  3839 3831 3840 1
  3840 3831 3839 1
  3841 3841 3856 1
  3842 3841 3847 1
  3843 3842 3850 2
  3844 3843 3857 1
  3845 3843 3850 am   BACKBONE|DICT|INTERRES
  3846 3843 3844 1
  3847 3844 3845 ar
  3848 3844 3849 ar
  3849 3845 3852 1
  3850 3845 3846 ar
  3851 3846 3847 ar
  3852 3846 3853 1
  3853 3847 3848 ar
  3854 3848 3849 ar
  3855 3848 3854 1
  3856 3849 3855 1
  3857 3850 3851 1
  3858 3851 3859 1
  3859 3851 3858 1
  3860 3851 3860 1
  3861 3861 3876 1
  3862 3861 3867 1
  3863 3862 3870 2
  3864 3863 3864 1
  3865 3863 3877 1
  3866 3863 3870 am   BACKBONE|DICT|INTERRES
  3867 3864 3865 ar
  3868 3864 3869 ar
  3869 3865 3866 ar
  3870 3865 3872 1
  3871 3866 3873 1
  3872 3866 3867 ar
  3873 3867 3868 ar
  3874 3868 3874 1
  3875 3868 3869 ar
  3876 3869 3875 1
  3877 3870 3871 1
  3878 3871 3879 1
  3879 3871 3878 1
  3880 3871 3880 1
  3881 3881 3896 1
  3882 3881 3887 1
  3883 3882 3890 2
  3884 3883 3884 1
  3885 3883 3897 1
  3886 3883 3890 am   BACKBONE|DICT|INTERRES
  3887 3884 3889 ar
  3888 3884 3885 ar
  3889 3885 3886 ar
  3890 3885 3892 1
  3891 3886 3887 ar
  3892 3886 3893 1
  3893 3887 3888 ar
  3894 3888 3889 ar
  3895 3888 3894 1
  3896 3889 3895 1
  3897 3890 3891 1
  3898 3891 3898 1
  3899 3891 3900 1
  3900 3891 3899 1
  3901 3901 3907 1
  3902 3901 3916 1
  3903 3902 3910 2
  3904 3903 3910 am   BACKBONE|DICT|INTERRES
  3905 3903 3904 1
  3906 3903 3917 1
  3907 3904 3909 ar
  3908 3904 3905 ar
  3909 3905 3912 1
  3910 3905 3906 ar
  3911 3906 3913 1
  3912 3906 3907 ar
  3913 3907 3908 ar
  3914 3908 3914 1
  3915 3908 3909 ar
  3916 3909 3915 1
  3917 3910 3911 1
  3918 3911 3918 1
  3919 3911 3920 1
  3920 3911 3919 1
  3921 3921 3936 1
  3922 3921 3927 1
  3923 3922 3930 2
  3924 3923 3937 1
  3925 3923 3930 am   BACKBONE|DICT|INTERRES
  3926 3923 3924 1
  3927 3924 3925 ar
  3928 3924 3929 ar
  3929 3925 3932 1
  3930 3925 3926 ar
  3931 3926 3927 ar
  3932 3926 3933 1
  3933 3927 3928 ar
  3934 3928 3929 ar
  3935 3928 3934 1
  3936 3929 3935 1
  3937 3930 3931 1
  3938 3931 3939 1
  3939 3931 3938 1
  3940 3931 3940 1
  3941 3941 3956 1
  3942 3941 3947 1
  3943 3942 3950 2
  3944 3943 3944 1
  3945 3943 3957 1
  3946 3943 3950 am   BACKBONE|DICT|INTERRES
  3947 3944 3945 ar
  3948 3944 3949 ar
  3949 3945 3946 ar
  3950 3945 3952 1
  3951 3946 3953 1
  3952 3946 3947 ar
  3953 3947 3948 ar
  3954 3948 3954 1
  3955 3948 3949 ar
  3956 3949 3955 1
  3957 3950 3951 1
  3958 3951 3959 1
  3959 3951 3958 1
  3960 3951 3960 1
  3961 3961 3976 1
  3962 3961 3967 1
  3963 3962 3970 2
  3964 3963 3964 1
  3965 3963 3977 1
  3966 3963 3970 am   BACKBONE|DICT|INTERRES
  3967 3964 3969 ar
  3968 3964 3965 ar
  3969 3965 3966 ar
  3970 3965 3972 1
  3971 3966 3967 ar
  3972 3966 3973 1
  3973 3967 3968 ar
  3974 3968 3969 ar
  3975 3968 3974 1
  3976 3969 3975 1
  3977 3970 3971 1
  3978 3971 3978 1
  3979 3971 3980 1
  3980 3971 3979 1
  3981 3981 3987 1
  3982 3981 3996 1
  3983 3982 3990 2
  3984 3983 3990 am   BACKBONE|DICT|INTERRES
  3985 3983 3984 1
  3986 3983 3997 1
  3987 3984 3989 ar
  3988 3984 3985 ar
  3989 3985 3992 1
  3990 3985 3986 ar
  3991 3986 3993 1
  3992 3986 3987 ar
  3993 3987 3988 ar
  3994 3988 3994 1
  3995 3988 3989 ar
  3996 3989 3995 1
  3997 3990 3991 1
  3998 3991 3998 1
  3999 3991 4000 1
  4000 3991 3999 1
  4001 4001 4016 1
  4002 4001 4007 1
  4003 4002 4010 2
  4004 4003 4017 1
  4005 4003 4010 am   BACKBONE|DICT|INTERRES
  4006 4003 4004 1
  4007 4004 4005 ar
  4008 4004 4009 ar
  4009 4005 4012 1
  4010 4005 4006 ar
  4011 4006 4007 ar
  4012 4006 4013 1
  4013 4007 4008 ar
  4014 4008 4009 ar
  4015 4008 4014 1
  4016 4009 4015 1
  4017 4010 4011 1
  4018 4011 4019 1
  4019 4011 4018 1
  4020 4011 4020 1
  4021 4021 4036 1
  4022 4021 4027 1
  4023 4022 4030 2
  4024 4023 4024 1
  4025 4023 4037 1
  4026 4023 4030 am   BACKBONE|DICT|INTERRES
  4027 4024 4025 ar
  4028 4024 4029 ar
  4029 4025 4026 ar
  4030 4025 4032 1
  4031 4026 4033 1
  4032 4026 4027 ar
  4033 4027 4028 ar
  4034 4028 4034 1
  4035 4028 4029 ar
  4036 4029 4035 1
  4037 4030 4031 1
  4038 4031 4039 1
  4039 4031 4038 1
  4040 4031 4040 1
  4041 4041 4056 1
  4042 4041 4047 1
  4043 4042 4050 2
  4044 4043 4044 1
  4045 4043 4057 1
  4046 4043 4050 am   BACKBONE|DICT|INTERRES
  4047 4044 4049 ar
  4048 4044 4045 ar
  4049 4045 4046 ar
  4050 4045 4052 1
  4051 4046 4047 ar
  4052 4046 4053 1
  4053 4047 4048 ar
  4054 4048 4049 ar
  4055 4048 4054 1
  4056 4049 4055 1
  4057 4050 4051 1
  4058 4051 4058 1
  4059 4051 4060 1
  4060 4051 4059 1
  4061 4061 4067 1
  4062 4061 4076 1
  4063 4062 4070 2
  4064 4063 4070 am   BACKBONE|DICT|INTERRES
  4065 4063 4064 1
  4066 4063 4077 1
  4067 4064 4069 ar
  4068 4064 4065 ar
  4069 4065 4072 1
  4070 4065 4066 ar
  4071 4066 4073 1
  4072 4066 4067 ar
  4073 4067 4068 ar
  4074 4068 4074 1
  4075 4068 4069 ar
  4076 4069 4075 1
  4077 4070 4071 1
  4078 4071 4078 1
  4079 4071 4080 1
  4080 4071 4079 1
  4081 4081 4096 1
  4082 4081 4087 1
  4083 4082 4090 2
  4084 4083 4097 1
  4085 4083 4090 am   BACKBONE|DICT|INTERRES
  4086 4083 4084 1
  4087 4084 4085 ar
  4088 4084 4089 ar
  4089 4085 4092 1
  4090 4085 4086 ar
  4091 4086 4087 ar
  4092 4086 4093 1
  4093 4087 4088 ar
  4094 4088 4089 ar
  4095 4088 4094 1
  4096 4089 4095 1
  4097 4090 4091 1
  4098 4091 4099 1
  4099 4091 4098 1
  4100 4091 4100 1
  4101 4101 4116 1
  4102 4101 4107 1
  4103 4102 4110 2
  4104 4103 4104 1
  4105 4103 4117 1
  4106 4103 4110 am   BACKBONE|DICT|INTERRES
  4107 4104 4105 ar
  4108 4104 4109 ar
  4109 4105 4106 ar
  4110 4105 4112 1
  4111 4106 4113 1
  4112 4106 4107 ar
  4113 4107 4108 ar
  4114 4108 4114 1
  4115 4108 4109 ar
  4116 4109 4115 1
  4117 4110 4111 1
  4118 4111 4119 1
  4119 4111 4118 1
  4120 4111 4120 1
  4121 4121 4136 1
  4122 4121 4127 1
  4123 4122 4130 2
  4124 4123 4124 1
  4125 4123 4137 1
  4126 4123 4130 am   BACKBONE|DICT|INTERRES
  4127 4124 4129 ar
  4128 4124 4125 ar
  4129 4125 4126 ar
  4130 4125 4132 1
  4131 4126 4127 ar
  4132 4126 4133 1
  4133 4127 4128 ar
  4134 4128 4129 ar
  4135 4128 4134 1
  4136 4129 4135 1
  4137 4130 4131 1
  4138 4131 4138 1
  4139 4131 4140 1
  4140 4131 4139 1
  4141 4141 4147 1
  4142 4141 4156 1
  4143 4142 4150 2
  4144 4143 4150 am   BACKBONE|DICT|INTERRES
  4145 4143 4144 1
  4146 4143 4157 1
  4147 4144 4149 ar
  4148 4144 4145 ar
  4149 4145 4152 1
  4150 4145 4146 ar
  4151 4146 4153 1
  4152 4146 4147 ar
  4153 4147 4148 ar
  4154 4148 4154 1
  4155 4148 4149 ar
  4156 4149 4155 1
  4157 4150 4151 1
  4158 4151 4158 1
  4159 4151 4160 1
  4160 4151 4159 1
  4161 4161 4176 1
  4162 4161 4167 1
  4163 4162 4170 2
  4164 4163 4177 1
  4165 4163 4170 am   BACKBONE|DICT|INTERRES
  4166 4163 4164 1
  4167 4164 4165 ar
  4168 4164 4169 ar
  4169 4165 4172 1
  4170 4165 4166 ar
  4171 4166 4167 ar
  4172 4166 4173 1
  4173 4167 4168 ar
  4174 4168 4169 ar
  4175 4168 4174 1
  4176 4169 4175 1
  4177 4170 4171 1
  4178 4171 4179 1
  4179 4171 4178 1
  4180 4171 4180 1
  4181 4181 4196 1
  4182 4181 4187 1
  4183 4182 4190 2
  4184 4183 4184 1
  4185 4183 4197 1
  4186 4183 4190 am   BACKBONE|DICT|INTERRES
  4187 4184 4185 ar
  4188 4184 4189 ar
  4189 4185 4186 ar
  4190 4185 4192 1
  4191 4186 4193 1
  4192 4186 4187 ar
  4193 4187 4188 ar
  4194 4188 4194 1
  4195 4188 4189 ar
  4196 4189 4195 1
  4197 4190 4191 1
  4198 4191 4199 1
  4199 4191 4198 1
  4200 4191 4200 1
  4201 4201 4216 1
  4202 4201 4207 1
  4203 4202 4210 2
  4204 4203 4204 1
  4205 4203 4217 1
  4206 4203 4210 am   BACKBONE|DICT|INTERRES
  4207 4204 4209 ar
  4208 4204 4205 ar
  4209 4205 4206 ar
  4210 4205 4212 1
  4211 4206 4207 ar
  4212 4206 4213 1
  4213 4207 4208 ar
  4214 4208 4209 ar
  4215 4208 4214 1
  4216 4209 4215 1
  4217 4210 4211 1
  4218 4211 4218 1
  4219 4211 4220 1
  4220 4211 4219 1
  4221 4221 4227 1
  4222 4221 4236 1
  4223 4222 4230 2
  4224 4223 4230 am   BACKBONE|DICT|INTERRES
  4225 4223 4224 1
  4226 4223 4237 1
  4227 4224 4229 ar
  4228 4224 4225 ar
  4229 4225 4232 1
  4230 4225 4226 ar
  4231 4226 4233 1
  4232 4226 4227 ar
  4233 4227 4228 ar
  4234 4228 4234 1
  4235 4228 4229 ar
  4236 4229 4235 1
  4237 4230 4231 1
  4238 4231 4238 1
  4239 4231 4240 1
  4240 4231 4239 1
  4241 4241 4256 1
  4242 4241 4247 1
  4243 4242 4250 2
  4244 4243 4257 1
  4245 4243 4250 am   BACKBONE|DICT|INTERRES
  4246 4243 4244 1
  4247 4244 4245 ar
  4248 4244 4249 ar
  4249 4245 4252 1
  4250 4245 4246 ar
  4251 4246 4247 ar
  4252 4246 4253 1
  4253 4247 4248 ar
  4254 4248 4249 ar
  4255 4248 4254 1
  4256 4249 4255 1
  4257 4250 4251 1
  4258 4251 4259 1
  4259 4251 4258 1
  4260 4251 4260 1
  4261 4261 4276 1
  4262 4261 4267 1
  4263 4262 4270 2
  4264 4263 4264 1
  4265 4263 4277 1
  4266 4263 4270 am   BACKBONE|DICT|INTERRES
  4267 4264 4265 ar
  4268 4264 4269 ar
  4269 4265 4266 ar
  4270 4265 4272 1
  4271 4266 4273 1
  4272 4266 4267 ar
  4273 4267 4268 ar
  4274 4268 4274 1
  4275 4268 4269 ar
  4276 4269 4275 1
  4277 4270 4271 1
  4278 4271 4279 1
  4279 4271 4278 1
  4280 4271 4280 1
  4281 4281 4296 1
  4282 4281 4287 1
  4283 4282 4290 2
  4284 4283 4284 1
  4285 4283 4297 1
  4286 4283 4290 am   BACKBONE|DICT|INTERRES
  4287 4284 4289 ar
  4288 4284 4285 ar
  4289 4285 4286 ar
  4290 4285 4292 1
  4291 4286 4287 ar
  4292 4286 4293 1
  4293 4287 4288 ar
  4294 4288 4289 ar
  4295 4288 4294 1
  4296 4289 4295 1
  4297 4290 4291 1
  4298 4291 4298 1
  4299 4291 4300 1
  4300 4291 4299 1
  4301 4301 4307 1
  4302 4301 4316 1
  4303 4302 4310 2
  4304 4303 4310 am   BACKBONE|DICT|INTERRES
  4305 4303 4304 1
  4306 4303 4317 1
  4307 4304 4309 ar
  4308 4304 4305 ar
  4309 4305 4312 1
  4310 4305 4306 ar
  4311 4306 4313 1
  4312 4306 4307 ar
  4313 4307 4308 ar
  4314 4308 4314 1
  4315 4308 4309 ar
  4316 4309 4315 1
  4317 4310 4311 1
  4318 4311 4318 1
  4319 4311 4320 1
  4320 4311 4319 1
  4321 4321 4336 1
  4322 4321 4327 1
  4323 4322 4330 2
  4324 4323 4337 1
  4325 4323 4330 am   BACKBONE|DICT|INTERRES
  4326 4323 4324 1
  4327 4324 4325 ar
  4328 4324 4329 ar
  4329 4325 4332 1
  4330 4325 4326 ar
  4331 4326 4327 ar
  4332 4326 4333 1
  4333 4327 4328 ar
  4334 4328 4329 ar
  4335 4328 4334 1
  4336 4329 4335 1
  4337 4330 4331 1
  4338 4331 4339 1
  4339 4331 4338 1
  4340 4331 4340 1
  4341 4341 4356 1
  4342 4341 4347 1
  4343 4342 4350 2
  4344 4343 4344 1
  4345 4343 4357 1
  4346 4343 4350 am   BACKBONE|DICT|INTERRES
  4347 4344 4345 ar
  4348 4344 4349 ar
  4349 4345 4346 ar
  4350 4345 4352 1
  4351 4346 4353 1
  4352 4346 4347 ar
  4353 4347 4348 ar
  4354 4348 4354 1
  4355 4348 4349 ar
  4356 4349 4355 1
  4357 4350 4351 1
  4358 4351 4359 1
  4359 4351 4358 1
  4360 4351 4360 1
  4361 4361 4376 1
  4362 4361 4367 1
  4363 4362 4370 2
  4364 4363 4364 1
  4365 4363 4377 1
  4366 4363 4370 am   BACKBONE|DICT|INTERRES
  4367 4364 4369 ar
  4368 4364 4365 ar
  4369 4365 4366 ar
  4370 4365 4372 1
  4371 4366 4367 ar
  4372 4366 4373 1
  4373 4367 4368 ar
  4374 4368 4369 ar
  4375 4368 4374 1
  4376 4369 4375 1
  4377 4370 4371 1
  4378 4371 4378 1
  4379 4371 4380 1
  4380 4371 4379 1
  4381 4381 4387 1
  4382 4381 4396 1
  4383 4382 4390 2
  4384 4383 4390 am   BACKBONE|DICT|INTERRES
  4385 4383 4384 1
  4386 4383 4397 1
  4387 4384 4389 ar
  4388 4384 4385 ar
  4389 4385 4392 1
  4390 4385 4386 ar
  4391 4386 4393 1
  4392 4386 4387 ar
  4393 4387 4388 ar
  4394 4388 4394 1
  4395 4388 4389 ar
  4396 4389 4395 1
  4397 4390 4391 1
  4398 4391 4398 1
  4399 4391 4400 1
  4400 4391 4399 1
  4401 4401 4416 1
  4402 4401 4407 1
  4403 4402 4410 2
  4404 4403 4417 1
  4405 4403 4410 am   BACKBONE|DICT|INTERRES
  4406 4403 4404 1
  4407 4404 4405 ar
  4408 4404 4409 ar
  4409 4405 4412 1
  4410 4405 4406 ar
  4411 4406 4407 ar
  4412 4406 4413 1
  4413 4407 4408 ar
  4414 4408 4409 ar
  4415 4408 4414 1
  4416 4409 4415 1
  4417 4410 4411 1
  4418 4411 4419 1
  4419 4411 4418 1
  4420 4411 4420 1
  4421 4421 4436 1
  4422 4421 4427 1
  4423 4422 4430 2
  4424 4423 4424 1
  4425 4423 4437 1
  4426 4423 4430 am   BACKBONE|DICT|INTERRES
  4427 4424 4425 ar
  4428 4424 4429 ar
  4429 4425 4426 ar
  4430 4425 4432 1
  4431 4426 4433 1
  4432 4426 4427 ar
  4433 4427 4428 ar
  4434 4428 4434 1
  4435 4428 4429 ar
  4436 4429 4435 1
  4437 4430 4431 1
  4438 4431 4439 1
  4439 4431 4438 1
  4440 4431 4440 1
  4441 4441 4456 1
  4442 4441 4447 1
  4443 4442 4450 2
  4444 4443 4444 1
  4445 4443 4457 1
  4446 4443 4450 am   BACKBONE|DICT|INTERRES
  4447 4444 4449 ar
  4448 4444 4445 ar
  4449 4445 4446 ar
  4450 4445 4452 1
  4451 4446 4447 ar
  4452 4446 4453 1
  4453 4447 4448 ar
  4454 4448 4449 ar
  4455 4448 4454 1
  4456 4449 4455 1
  4457 4450 4451 1
  4458 4451 4458 1
  4459 4451 4460 1
  4460 4451 4459 1
  4461 4461 4467 1
  4462 4461 4476 1
  4463 4462 4470 2
  4464 4463 4470 am   BACKBONE|DICT|INTERRES
  4465 4463 4464 1
  4466 4463 4477 1
  4467 4464 4469 ar
  4468 4464 4465 ar
  4469 4465 4472 1
  4470 4465 4466 ar
  4471 4466 4473 1
  4472 4466 4467 ar
  4473 4467 4468 ar
  4474 4468 4474 1
  4475 4468 4469 ar
  4476 4469 4475 1
  4477 4470 4471 1
  4478 4471 4478 1
  4479 4471 4480 1
  4480 4471 4479 1
  4481 4481 4496 1
  4482 4481 4487 1
  4483 4482 4490 2
  4484 4483 4497 1
  4485 4483 4490 am   BACKBONE|DICT|INTERRES
  4486 4483 4484 1
  4487 4484 4485 ar
  4488 4484 4489 ar
  4489 4485 4492 1
  4490 4485 4486 ar
  4491 4486 4487 ar
  4492 4486 4493 1
  4493 4487 4488 ar
  4494 4488 4489 ar
  4495 4488 4494 1
  4496 4489 4495 1
  4497 4490 4491 1
  4498 4491 4499 1
  4499 4491 4498 1
  4500 4491 4500 1
  4501 4501 4516 1
  4502 4501 4507 1
  4503 4502 4510 2
  4504 4503 4504 1
  4505 4503 4517 1
  4506 4503 4510 am   BACKBONE|DICT|INTERRES
  4507 4504 4505 ar
  4508 4504 4509 ar
  4509 4505 4506 ar
  4510 4505 4512 1
  4511 4506 4513 1
  4512 4506 4507 ar
  4513 4507 4508 ar
  4514 4508 4514 1
  4515 4508 4509 ar
  4516 4509 4515 1
  4517 4510 4511 1
  4518 4511 4519 1
  4519 4511 4518 1
  4520 4511 4520 1
  4521 4521 4536 1
  4522 4521 4527 1
  4523 4522 4530 2
  4524 4523 4524 1
  4525 4523 4537 1
  4526 4523 4530 am   BACKBONE|DICT|INTERRES
  4527 4524 4529 ar
  4528 4524 4525 ar
  4529 4525 4526 ar
  4530 4525 4532 1
  4531 4526 4527 ar
  4532 4526 4533 1
  4533 4527 4528 ar
  4534 4528 4529 ar
  4535 4528 4534 1
  4536 4529 4535 1
  4537 4530 4531 1
  4538 4531 4538 1
  4539 4531 4540 1
  4540 4531 4539 1
  4541 4541 4547 1
  4542 4541 4556 1
  4543 4542 4550 2
  4544 4543 4550 am   BACKBONE|DICT|INTERRES
  4545 4543 4544 1
  4546 4543 4557 1
  4547 4544 4549 ar
  4548 4544 4545 ar
  4549 4545 4552 1
  4550 4545 4546 ar
  4551 4546 4553 1
  4552 4546 4547 ar
  4553 4547 4548 ar
  4554 4548 4554 1
  4555 4548 4549 ar
  4556 4549 4555 1
  4557 4550 4551 1
  4558 4551 4558 1
  4559 4551 4560 1
  4560 4551 4559 1
  4561 4561 4576 1
  4562 4561 4567 1
  4563 4562 4570 2
  4564 4563 4577 1
  4565 4563 4570 am   BACKBONE|DICT|INTERRES
  4566 4563 4564 1
  4567 4564 4565 ar
  4568 4564 4569 ar
  4569 4565 4572 1
  4570 4565 4566 ar
  4571 4566 4567 ar
  4572 4566 4573 1
  4573 4567 4568 ar
  4574 4568 4569 ar
  4575 4568 4574 1
  4576 4569 4575 1
  4577 4570 4571 1
  4578 4571 4579 1
  4579 4571 4578 1
  4580 4571 4580 1
  4581 4581 4596 1
  4582 4581 4587 1
  4583 4582 4590 2
  4584 4583 4584 1
  4585 4583 4597 1
  4586 4583 4590 am   BACKBONE|DICT|INTERRES
  4587 4584 4585 ar
  4588 4584 4589 ar
  4589 4585 4586 ar
  4590 4585 4592 1
  4591 4586 4593 1
  4592 4586 4587 ar
  4593 4587 4588 ar
  4594 4588 4594 1
  4595 4588 4589 ar
  4596 4589 4595 1
  4597 4590 4591 1
  4598 4591 4599 1
  4599 4591 4598 1
  4600 4591 4600 1
  4601 4601 4616 1
  4602 4601 4607 1
  4603 4602 4610 2
  4604 4603 4604 1
  4605 4603 4617 1
  4606 4603 4610 am   BACKBONE|DICT|INTERRES
  4607 4604 4609 ar
  4608 4604 4605 ar
  4609 4605 4606 ar
  4610 4605 4612 1
  4611 4606 4607 ar
  4612 4606 4613 1
  4613 4607 4608 ar
  4614 4608 4609 ar
  4615 4608 4614 1
  4616 4609 4615 1
  4617 4610 4611 1
  4618 4611 4618 1
  4619 4611 4620 1
  4620 4611 4619 1
  4621 4621 4627 1
  4622 4621 4636 1
  4623 4622 4630 2
  4624 4623 4630 am   BACKBONE|DICT|INTERRES
  4625 4623 4624 1
  4626 4623 4637 1
  4627 4624 4629 ar
  4628 4624 4625 ar
  4629 4625 4632 1
  4630 4625 4626 ar
  4631 4626 4633 1
  4632 4626 4627 ar
  4633 4627 4628 ar
  4634 4628 4634 1
  4635 4628 4629 ar
  4636 4629 4635 1
  4637 4630 4631 1
  4638 4631 4638 1
  4639 4631 4640 1
  4640 4631 4639 1
  4641 4641 4656 1
  4642 4641 4647 1
  4643 4642 4650 2
  4644 4643 4657 1
  4645 4643 4650 am   BACKBONE|DICT|INTERRES
  4646 4643 4644 1
  4647 4644 4645 ar
  4648 4644 4649 ar
  4649 4645 4652 1
  4650 4645 4646 ar
  4651 4646 4647 ar
  4652 4646 4653 1
  4653 4647 4648 ar
  4654 4648 4649 ar
  4655 4648 4654 1
  4656 4649 4655 1
  4657 4650 4651 1
  4658 4651 4659 1
  4659 4651 4658 1
  4660 4651 4660 1
  4661 4661 4676 1
  4662 4661 4667 1
  4663 4662 4670 2
  4664 4663 4664 1
  4665 4663 4677 1
  4666 4663 4670 am   BACKBONE|DICT|INTERRES
  4667 4664 4665 ar
  4668 4664 4669 ar
  4669 4665 4666 ar
  4670 4665 4672 1
  4671 4666 4673 1
  4672 4666 4667 ar
  4673 4667 4668 ar
  4674 4668 4674 1
  4675 4668 4669 ar
  4676 4669 4675 1
  4677 4670 4671 1
  4678 4671 4679 1
  4679 4671 4678 1
  4680 4671 4680 1
  4681 4681 4696 1
  4682 4681 4687 1
  4683 4682 4690 2
  4684 4683 4684 1
  4685 4683 4697 1
  4686 4683 4690 am   BACKBONE|DICT|INTERRES
  4687 4684 4689 ar
  4688 4684 4685 ar
  4689 4685 4686 ar
  4690 4685 4692 1
  4691 4686 4687 ar
  4692 4686 4693 1
  4693 4687 4688 ar
  4694 4688 4689 ar
  4695 4688 4694 1
  4696 4689 4695 1
  4697 4690 4691 1
  4698 4691 4698 1
  4699 4691 4700 1
  4700 4691 4699 1
  4701 4701 4707 1
  4702 4701 4716 1
  4703 4702 4710 2
  4704 4703 4710 am   BACKBONE|DICT|INTERRES
  4705 4703 4704 1
  4706 4703 4717 1
  4707 4704 4709 ar
  4708 4704 4705 ar
  4709 4705 4712 1
  4710 4705 4706 ar
  4711 4706 4713 1
  4712 4706 4707 ar
  4713 4707 4708 ar
  4714 4708 4714 1
  4715 4708 4709 ar
  4716 4709 4715 1
  4717 4710 4711 1
  4718 4711 4718 1
  4719 4711 4720 1
  4720 4711 4719 1
  4721 4721 4736 1
  4722 4721 4727 1
  4723 4722 4730 2
  4724 4723 4737 1
  4725 4723 4730 am   BACKBONE|DICT|INTERRES
  4726 4723 4724 1
  4727 4724 4725 ar
  4728 4724 4729 ar
  4729 4725 4732 1
  4730 4725 4726 ar
  4731 4726 4727 ar
  4732 4726 4733 1
  4733 4727 4728 ar
  4734 4728 4729 ar
  4735 4728 4734 1
  4736 4729 4735 1
  4737 4730 4731 1
  4738 4731 4739 1
  4739 4731 4738 1
  4740 4731 4740 1
  4741 4741 4756 1
  4742 4741 4747 1
  4743 4742 4750 2
  4744 4743 4744 1
  4745 4743 4757 1
  4746 4743 4750 am   BACKBONE|DICT|INTERRES
  4747 4744 4745 ar
  4748 4744 4749 ar
  4749 4745 4746 ar
  4750 4745 4752 1
  4751 4746 4753 1
  4752 4746 4747 ar
  4753 4747 4748 ar
  4754 4748 4754 1
  4755 4748 4749 ar
  4756 4749 4755 1
  4757 4750 4751 1
  4758 4751 4759 1
  4759 4751 4758 1
  4760 4751 4760 1
  4761 4761 4776 1
  4762 4761 4767 1
  4763 4762 4770 2
  4764 4763 4764 1
  4765 4763 4777 1
  4766 4763 4770 am   BACKBONE|DICT|INTERRES
  4767 4764 4769 ar
  4768 4764 4765 ar
  4769 4765 4766 ar
  4770 4765 4772 1
  4771 4766 4767 ar
  4772 4766 4773 1
  4773 4767 4768 ar
  4774 4768 4769 ar
  4775 4768 4774 1
  4776 4769 4775 1
  4777 4770 4771 1
  4778 4771 4778 1
  4779 4771 4780 1
  4780 4771 4779 1
  4781 4781 4787 1
  4782 4781 4796 1
  4783 4782 4790 2
  4784 4783 4790 am   BACKBONE|DICT|INTERRES
  4785 4783 4784 1
  4786 4783 4797 1
  4787 4784 4789 ar
  4788 4784 4785 ar
  4789 4785 4792 1
  4790 4785 4786 ar
  4791 4786 4793 1
  4792 4786 4787 ar
  4793 4787 4788 ar
  4794 4788 4794 1
  4795 4788 4789 ar
  4796 4789 4795 1
  4797 4790 4791 1
  4798 4791 4798 1
  4799 4791 4800 1
  4800 4791 4799 1
  4801 4801 4816 1
  4802 4801 4807 1
  4803 4802 4810 2
  4804 4803 4817 1
  4805 4803 4810 am   BACKBONE|DICT|INTERRES
  4806 4803 4804 1
  4807 4804 4805 ar
  4808 4804 4809 ar
  4809 4805 4812 1
  4810 4805 4806 ar
  4811 4806 4807 ar
  4812 4806 4813 1
  4813 4807 4808 ar
  4814 4808 4809 ar
  4815 4808 4814 1
  4816 4809 4815 1
  4817 4810 4811 1
  4818 4811 4819 1
  4819 4811 4818 1
  4820 4811 4820 1
  4821 4821 4836 1
  4822 4821 4827 1
  4823 4822 4830 2
  4824 4823 4824 1
  4825 4823 4837 1
  4826 4823 4830 am   BACKBONE|DICT|INTERRES
  4827 4824 4825 ar
  4828 4824 4829 ar
  4829 4825 4826 ar
  4830 4825 4832 1
  4831 4826 4833 1
  4832 4826 4827 ar
  4833 4827 4828 ar
  4834 4828 4834 1
  4835 4828 4829 ar
  4836 4829 4835 1
  4837 4830 4831 1
  4838 4831 4839 1
  4839 4831 4838 1
  4840 4831 4840 1
  4841 4841 4856 1
  4842 4841 4847 1
  4843 4842 4850 2
  4844 4843 4844 1
  4845 4843 4857 1
  4846 4843 4850 am   BACKBONE|DICT|INTERRES
  4847 4844 4849 ar
  4848 4844 4845 ar
  4849 4845 4846 ar
  4850 4845 4852 1
  4851 4846 4847 ar
  4852 4846 4853 1
  4853 4847 4848 ar
  4854 4848 4849 ar
  4855 4848 4854 1
  4856 4849 4855 1
  4857 4850 4851 1
  4858 4851 4858 1
  4859 4851 4860 1
  4860 4851 4859 1
  4861 4861 4867 1
  4862 4861 4876 1
  4863 4862 4870 2
  4864 4863 4870 am   BACKBONE|DICT|INTERRES
  4865 4863 4864 1
  4866 4863 4877 1
  4867 4864 4869 ar
  4868 4864 4865 ar
  4869 4865 4872 1
  4870 4865 4866 ar
  4871 4866 4873 1
  4872 4866 4867 ar
  4873 4867 4868 ar
  4874 4868 4874 1
  4875 4868 4869 ar
  4876 4869 4875 1
  4877 4870 4871 1
  4878 4871 4878 1
  4879 4871 4880 1
  4880 4871 4879 1
  4881 4881 4896 1
  4882 4881 4887 1
  4883 4882 4890 2
  4884 4883 4897 1
  4885 4883 4890 am   BACKBONE|DICT|INTERRES
  4886 4883 4884 1
  4887 4884 4885 ar
  4888 4884 4889 ar
  4889 4885 4892 1
  4890 4885 4886 ar
  4891 4886 4887 ar
  4892 4886 4893 1
  4893 4887 4888 ar
  4894 4888 4889 ar
  4895 4888 4894 1
  4896 4889 4895 1
  4897 4890 4891 1
  4898 4891 4899 1
  4899 4891 4898 1
  4900 4891 4900 1
  4901 4901 4916 1
  4902 4901 4907 1
  4903 4902 4910 2
  4904 4903 4904 1
  4905 4903 4917 1
  4906 4903 4910 am   BACKBONE|DICT|INTERRES
  4907 4904 4905 ar
  4908 4904 4909 ar
  4909 4905 4906 ar
  4910 4905 4912 1
  4911 4906 4913 1
  4912 4906 4907 ar
  4913 4907 4908 ar
  4914 4908 4914 1
  4915 4908 4909 ar
  4916 4909 4915 1
  4917 4910 4911 1
  4918 4911 4919 1
  4919 4911 4918 1
  4920 4911 4920 1
  4921 4921 4936 1
  4922 4921 4927 1
  4923 4922 4930 2
  4924 4923 4924 1
  4925 4923 4937 1
  4926 4923 4930 am   BACKBONE|DICT|INTERRES
  4927 4924 4929 ar
  4928 4924 4925 ar
  4929 4925 4926 ar
  4930 4925 4932 1
  4931 4926 4927 ar
  4932 4926 4933 1
  4933 4927 4928 ar
  4934 4928 4929 ar
  4935 4928 4934 1
  4936 4929 4935 1
  4937 4930 4931 1
  4938 4931 4938 1
  4939 4931 4940 1
  4940 4931 4939 1
  4941 4941 4947 1
  4942 4941 4956 1
  4943 4942 4950 2
  4944 4943 4950 am   BACKBONE|DICT|INTERRES
  4945 4943 4944 1
  4946 4943 4957 1
  4947 4944 4949 ar
  4948 4944 4945 ar
  4949 4945 4952 1
  4950 4945 4946 ar
  4951 4946 4953 1
  4952 4946 4947 ar
  4953 4947 4948 ar
  4954 4948 4954 1
  4955 4948 4949 ar
  4956 4949 4955 1
  4957 4950 4951 1
  4958 4951 4958 1
  4959 4951 4960 1
  4960 4951 4959 1
  4961 4961 4976 1
  4962 4961 4967 1
  4963 4962 4970 2
  4964 4963 4977 1
  4965 4963 4970 am   BACKBONE|DICT|INTERRES
  4966 4963 4964 1
  4967 4964 4965 ar
  4968 4964 4969 ar
  4969 4965 4972 1
  4970 4965 4966 ar
  4971 4966 4967 ar
  4972 4966 4973 1
  4973 4967 4968 ar
  4974 4968 4969 ar
  4975 4968 4974 1
  4976 4969 4975 1
  4977 4970 4971 1
  4978 4971 4979 1
  4979 4971 4978 1
  4980 4971 4980 1
  4981 4981 4996 1
  4982 4981 4987 1
  4983 4982 4990 2
  4984 4983 4984 1
  4985 4983 4997 1
  4986 4983 4990 am   BACKBONE|DICT|INTERRES
  4987 4984 4985 ar
  4988 4984 4989 ar
  4989 4985 4986 ar
  4990 4985 4992 1
  4991 4986 4993 1
  4992 4986 4987 ar
  4993 4987 4988 ar
  4994 4988 4994 1
  4995 4988 4989 ar
  4996 4989 4995 1
  4997 4990 4991 1
  4998 4991 4999 1
  4999 4991 4998 1
  5000 4991 5000 1
  5001 5001 5016 1
  5002 5001 5007 1
  5003 5002 5010 2
  5004 5003 5004 1
  5005 5003 5017 1
  5006 5003 5010 am   BACKBONE|DICT|INTERRES
  5007 5004 5009 ar
  5008 5004 5005 ar
  5009 5005 5006 ar
  5010 5005 5012 1
  5011 5006 5007 ar
  5012 5006 5013 1
  5013 5007 5008 ar
  5014 5008 5009 ar
  5015 5008 5014 1
  5016 5009 5015 1
  5017 5010 5011 1
  5018 5011 5018 1
  5019 5011 5020 1
  5020 5011 5019 1
  5021 5021 5027 1
  5022 5021 5036 1
  5023 5022 5030 2
  5024 5023 5030 am   BACKBONE|DICT|INTERRES
  5025 5023 5024 1
  5026 5023 5037 1
  5027 5024 5029 ar
  5028 5024 5025 ar
  5029 5025 5032 1
  5030 5025 5026 ar
  5031 5026 5033 1
  5032 5026 5027 ar
  5033 5027 5028 ar
  5034 5028 5034 1
  5035 5028 5029 ar
  5036 5029 5035 1
  5037 5030 5031 1
  5038 5031 5038 1
  5039 5031 5040 1
  5040 5031 5039 1
  5041 5041 5056 1
  5042 5041 5047 1
  5043 5042 5050 2
  5044 5043 5057 1
  5045 5043 5050 am   BACKBONE|DICT|INTERRES
  5046 5043 5044 1
  5047 5044 5045 ar
  5048 5044 5049 ar
  5049 5045 5052 1
  5050 5045 5046 ar
  5051 5046 5047 ar
  5052 5046 5053 1
  5053 5047 5048 ar
  5054 5048 5049 ar
  5055 5048 5054 1
  5056 5049 5055 1
  5057 5050 5051 1
  5058 5051 5059 1
  5059 5051 5058 1
  5060 5051 5060 1
  5061 5061 5076 1
  5062 5061 5067 1
  5063 5062 5070 2
  5064 5063 5064 1
  5065 5063 5077 1
  5066 5063 5070 am   BACKBONE|DICT|INTERRES
  5067 5064 5065 ar
  5068 5064 5069 ar
  5069 5065 5066 ar
  5070 5065 5072 1
  5071 5066 5073 1
  5072 5066 5067 ar
  5073 5067 5068 ar
  5074 5068 5074 1
  5075 5068 5069 ar
  5076 5069 5075 1
  5077 5070 5071 1
  5078 5071 5079 1
  5079 5071 5078 1
  5080 5071 5080 1
  5081 5081 5096 1
  5082 5081 5087 1
  5083 5082 5090 2
  5084 5083 5084 1
  5085 5083 5097 1
  5086 5083 5090 am   BACKBONE|DICT|INTERRES
  5087 5084 5089 ar
  5088 5084 5085 ar
  5089 5085 5086 ar
  5090 5085 5092 1
  5091 5086 5087 ar
  5092 5086 5093 1
  5093 5087 5088 ar
  5094 5088 5089 ar
  5095 5088 5094 1
  5096 5089 5095 1
  5097 5090 5091 1
  5098 5091 5098 1
  5099 5091 5100 1
  5100 5091 5099 1
  5101 5101 5107 1
  5102 5101 5116 1
  5103 5102 5110 2
  5104 5103 5110 am   BACKBONE|DICT|INTERRES
  5105 5103 5104 1
  5106 5103 5117 1
  5107 5104 5109 ar
  5108 5104 5105 ar
  5109 5105 5112 1
  5110 5105 5106 ar
  5111 5106 5113 1
  5112 5106 5107 ar
  5113 5107 5108 ar
  5114 5108 5114 1
  5115 5108 5109 ar
  5116 5109 5115 1
  5117 5110 5111 1
  5118 5111 5118 1
  5119 5111 5120 1
  5120 5111 5119 1
  5121 5121 5136 1
  5122 5121 5127 1
  5123 5122 5130 2
  5124 5123 5137 1
  5125 5123 5130 am   BACKBONE|DICT|INTERRES
  5126 5123 5124 1
  5127 5124 5125 ar
  5128 5124 5129 ar
  5129 5125 5132 1
  5130 5125 5126 ar
  5131 5126 5127 ar
  5132 5126 5133 1
  5133 5127 5128 ar
  5134 5128 5129 ar
  5135 5128 5134 1
  5136 5129 5135 1
  5137 5130 5131 1
  5138 5131 5139 1
  5139 5131 5138 1
  5140 5131 5140 1
  5141 5141 5156 1
  5142 5141 5147 1
  5143 5142 5150 2
  5144 5143 5144 1
  5145 5143 5157 1
  5146 5143 5150 am   BACKBONE|DICT|INTERRES
  5147 5144 5145 ar
  5148 5144 5149 ar
  5149 5145 5146 ar
  5150 5145 5152 1
  5151 5146 5153 1
  5152 5146 5147 ar
  5153 5147 5148 ar
  5154 5148 5154 1
  5155 5148 5149 ar
  5156 5149 5155 1
  5157 5150 5151 1
  5158 5151 5159 1
  5159 5151 5158 1
  5160 5151 5160 1
  5161 5161 5176 1
  5162 5161 5167 1
  5163 5162 5170 2
  5164 5163 5164 1
  5165 5163 5177 1
  5166 5163 5170 am   BACKBONE|DICT|INTERRES
  5167 5164 5169 ar
  5168 5164 5165 ar
  5169 5165 5166 ar
  5170 5165 5172 1
  5171 5166 5167 ar
  5172 5166 5173 1
  5173 5167 5168 ar
  5174 5168 5169 ar
  5175 5168 5174 1
  5176 5169 5175 1
  5177 5170 5171 1
  5178 5171 5178 1
  5179 5171 5180 1
  5180 5171 5179 1
  5181 5181 5187 1
  5182 5181 5196 1
  5183 5182 5190 2
  5184 5183 5190 am   BACKBONE|DICT|INTERRES
  5185 5183 5184 1
  5186 5183 5197 1
  5187 5184 5189 ar
  5188 5184 5185 ar
  5189 5185 5192 1
  5190 5185 5186 ar
  5191 5186 5193 1
  5192 5186 5187 ar
  5193 5187 5188 ar
  5194 5188 5194 1
  5195 5188 5189 ar
  5196 5189 5195 1
  5197 5190 5191 1
  5198 5191 5198 1
  5199 5191 5200 1
  5200 5191 5199 1
  5201 5201 5216 1
  5202 5201 5207 1
  5203 5202 5210 2
  5204 5203 5217 1
  5205 5203 5210 am   BACKBONE|DICT|INTERRES
  5206 5203 5204 1
  5207 5204 5205 ar
  5208 5204 5209 ar
  5209 5205 5212 1
  5210 5205 5206 ar
  5211 5206 5207 ar
  5212 5206 5213 1
  5213 5207 5208 ar
  5214 5208 5209 ar
  5215 5208 5214 1
  5216 5209 5215 1
  5217 5210 5211 1
  5218 5211 5219 1
  5219 5211 5218 1
  5220 5211 5220 1
  5221 5221 5236 1
  5222 5221 5227 1
  5223 5222 5230 2
  5224 5223 5224 1
  5225 5223 5237 1
  5226 5223 5230 am   BACKBONE|DICT|INTERRES
  5227 5224 5225 ar
  5228 5224 5229 ar
  5229 5225 5226 ar
  5230 5225 5232 1
  5231 5226 5233 1
  5232 5226 5227 ar
  5233 5227 5228 ar
  5234 5228 5234 1
  5235 5228 5229 ar
  5236 5229 5235 1
  5237 5230 5231 1
  5238 5231 5239 1
  5239 5231 5238 1
  5240 5231 5240 1
  5241 5241 5256 1
  5242 5241 5247 1
  5243 5242 5250 2
  5244 5243 5244 1
  5245 5243 5257 1
  5246 5243 5250 am   BACKBONE|DICT|INTERRES
  5247 5244 5249 ar
  5248 5244 5245 ar
  5249 5245 5246 ar
  5250 5245 5252 1
  5251 5246 5247 ar
  5252 5246 5253 1
  5253 5247 5248 ar
  5254 5248 5249 ar
  5255 5248 5254 1
  5256 5249 5255 1
  5257 5250 5251 1
  5258 5251 5258 1
  5259 5251 5260 1
  5260 5251 5259 1
  5261 5261 5267 1
  5262 5261 5276 1
  5263 5262 5270 2
  5264 5263 5270 am   BACKBONE|DICT|INTERRES
  5265 5263 5264 1
  5266 5263 5277 1
  5267 5264 5269 ar
  5268 5264 5265 ar
  5269 5265 5272 1
  5270 5265 5266 ar
  5271 5266 5273 1
  5272 5266 5267 ar
  5273 5267 5268 ar
  5274 5268 5274 1
  5275 5268 5269 ar
  5276 5269 5275 1
  5277 5270 5271 1
  5278 5271 5278 1
  5279 5271 5280 1
  5280 5271 5279 1
  5281 5281 5296 1
  5282 5281 5287 1
  5283 5282 5290 2
  5284 5283 5297 1
  5285 5283 5290 am   BACKBONE|DICT|INTERRES
  5286 5283 5284 1
  5287 5284 5285 ar
  5288 5284 5289 ar
  5289 5285 5292 1
  5290 5285 5286 ar
  5291 5286 5287 ar
  5292 5286 5293 1
  5293 5287 5288 ar
  5294 5288 5289 ar
  5295 5288 5294 1
  5296 5289 5295 1
  5297 5290 5291 1
  5298 5291 5299 1
  5299 5291 5298 1
  5300 5291 5300 1
  5301 5301 5316 1
  5302 5301 5307 1
  5303 5302 5310 2
  5304 5303 5304 1
  5305 5303 5317 1
  5306 5303 5310 am   BACKBONE|DICT|INTERRES
  5307 5304 5305 ar
  5308 5304 5309 ar
  5309 5305 5306 ar
  5310 5305 5312 1
  5311 5306 5313 1
  5312 5306 5307 ar
  5313 5307 5308 ar
  5314 5308 5314 1
  5315 5308 5309 ar
  5316 5309 5315 1
  5317 5310 5311 1
  5318 5311 5319 1
  5319 5311 5318 1
  5320 5311 5320 1
  5321 5321 5336 1
  5322 5321 5327 1
  5323 5322 5330 2
  5324 5323 5324 1
  5325 5323 5337 1
  5326 5323 5330 am   BACKBONE|DICT|INTERRES
  5327 5324 5329 ar
  5328 5324 5325 ar
  5329 5325 5326 ar
  5330 5325 5332 1
  5331 5326 5327 ar
  5332 5326 5333 1
  5333 5327 5328 ar
  5334 5328 5329 ar
  5335 5328 5334 1
  5336 5329 5335 1
  5337 5330 5331 1
  5338 5331 5338 1
  5339 5331 5340 1
  5340 5331 5339 1
  5341 5341 5347 1
  5342 5341 5356 1
  5343 5342 5350 2
  5344 5343 5350 am   BACKBONE|DICT|INTERRES
  5345 5343 5344 1
  5346 5343 5357 1
  5347 5344 5349 ar
  5348 5344 5345 ar
  5349 5345 5352 1
  5350 5345 5346 ar
  5351 5346 5353 1
  5352 5346 5347 ar
  5353 5347 5348 ar
  5354 5348 5354 1
  5355 5348 5349 ar
  5356 5349 5355 1
  5357 5350 5351 1
  5358 5351 5358 1
  5359 5351 5360 1
  5360 5351 5359 1
  5361 5361 5376 1
  5362 5361 5367 1
  5363 5362 5370 2
  5364 5363 5377 1
  5365 5363 5370 am   BACKBONE|DICT|INTERRES
  5366 5363 5364 1
  5367 5364 5365 ar
  5368 5364 5369 ar
  5369 5365 5372 1
  5370 5365 5366 ar
  5371 5366 5367 ar
  5372 5366 5373 1
  5373 5367 5368 ar
  5374 5368 5369 ar
  5375 5368 5374 1
  5376 5369 5375 1
  5377 5370 5371 1
  5378 5371 5379 1
  5379 5371 5378 1
  5380 5371 5380 1
  5381 5381 5396 1
  5382 5381 5387 1
  5383 5382 5390 2
  5384 5383 5384 1
  5385 5383 5397 1
  5386 5383 5390 am   BACKBONE|DICT|INTERRES
  5387 5384 5385 ar
  5388 5384 5389 ar
  5389 5385 5386 ar
  5390 5385 5392 1
  5391 5386 5393 1
  5392 5386 5387 ar
  5393 5387 5388 ar
  5394 5388 5394 1
  5395 5388 5389 ar
  5396 5389 5395 1
  5397 5390 5391 1
  5398 5391 5399 1
  5399 5391 5398 1
  5400 5391 5400 1
  5401 5401 5416 1
  5402 5401 5407 1
  5403 5402 5410 2
  5404 5403 5404 1
  5405 5403 5417 1
  5406 5403 5410 am   BACKBONE|DICT|INTERRES
  5407 5404 5409 ar
  5408 5404 5405 ar
  5409 5405 5406 ar
  5410 5405 5412 1
  5411 5406 5407 ar
  5412 5406 5413 1
  5413 5407 5408 ar
  5414 5408 5409 ar
  5415 5408 5414 1
  5416 5409 5415 1
  5417 5410 5411 1
  5418 5411 5418 1
  5419 5411 5420 1
  5420 5411 5419 1
  5421 5421 5427 1
  5422 5421 5436 1
  5423 5422 5430 2
  5424 5423 5430 am   BACKBONE|DICT|INTERRES
  5425 5423 5424 1
  5426 5423 5437 1
  5427 5424 5429 ar
  5428 5424 5425 ar
  5429 5425 5432 1
  5430 5425 5426 ar
  5431 5426 5433 1
  5432 5426 5427 ar
  5433 5427 5428 ar
  5434 5428 5434 1
  5435 5428 5429 ar
  5436 5429 5435 1
  5437 5430 5431 1
  5438 5431 5438 1
  5439 5431 5440 1
  5440 5431 5439 1
  5441 5441 5456 1
  5442 5441 5447 1
  5443 5442 5450 2
  5444 5443 5457 1
  5445 5443 5450 am   BACKBONE|DICT|INTERRES
  5446 5443 5444 1
  5447 5444 5445 ar
  5448 5444 5449 ar
  5449 5445 5452 1
  5450 5445 5446 ar
  5451 5446 5447 ar
  5452 5446 5453 1
  5453 5447 5448 ar
  5454 5448 5449 ar
  5455 5448 5454 1
  5456 5449 5455 1
  5457 5450 5451 1
  5458 5451 5459 1
  5459 5451 5458 1
  5460 5451 5460 1
  5461 5461 5476 1
  5462 5461 5467 1
  5463 5462 5470 2
  5464 5463 5464 1
  5465 5463 5477 1
  5466 5463 5470 am   BACKBONE|DICT|INTERRES
  5467 5464 5465 ar
  5468 5464 5469 ar
  5469 5465 5466 ar
  5470 5465 5472 1
  5471 5466 5473 1
  5472 5466 5467 ar
  5473 5467 5468 ar
  5474 5468 5474 1
  5475 5468 5469 ar
  5476 5469 5475 1
  5477 5470 5471 1
  5478 5471 5479 1
  5479 5471 5478 1
  5480 5471 5480 1
  5481 5481 5496 1
  5482 5481 5487 1
  5483 5482 5490 2
  5484 5483 5484 1
  5485 5483 5497 1
  5486 5483 5490 am   BACKBONE|DICT|INTERRES
  5487 5484 5489 ar
  5488 5484 5485 ar
  5489 5485 5486 ar
  5490 5485 5492 1
  5491 5486 5487 ar
  5492 5486 5493 1
  5493 5487 5488 ar
  5494 5488 5489 ar
  5495 5488 5494 1
  5496 5489 5495 1
  5497 5490 5491 1
  5498 5491 5498 1
  5499 5491 5500 1
  5500 5491 5499 1
  5501 5501 5507 1
  5502 5501 5516 1
  5503 5502 5510 2
  5504 5503 5510 am   BACKBONE|DICT|INTERRES
  5505 5503 5504 1
  5506 5503 5517 1
  5507 5504 5509 ar
  5508 5504 5505 ar
  5509 5505 5512 1
  5510 5505 5506 ar
  5511 5506 5513 1
  5512 5506 5507 ar
  5513 5507 5508 ar
  5514 5508 5514 1
  5515 5508 5509 ar
  5516 5509 5515 1
  5517 5510 5511 1
  5518 5511 5518 1
  5519 5511 5520 1
  5520 5511 5519 1
  5521 5521 5536 1
  5522 5521 5527 1
  5523 5522 5530 2
  5524 5523 5537 1
  5525 5523 5530 am   BACKBONE|DICT|INTERRES
  5526 5523 5524 1
  5527 5524 5525 ar
  5528 5524 5529 ar
  5529 5525 5532 1
  5530 5525 5526 ar
  5531 5526 5527 ar
  5532 5526 5533 1
  5533 5527 5528 ar
  5534 5528 5529 ar
  5535 5528 5534 1
  5536 5529 5535 1
  5537 5530 5531 1
  5538 5531 5539 1
  5539 5531 5538 1
  5540 5531 5540 1
  5541 5541 5556 1
  5542 5541 5547 1
  5543 5542 5550 2
  5544 5543 5544 1
  5545 5543 5557 1
  5546 5543 5550 am   BACKBONE|DICT|INTERRES
  5547 5544 5545 ar
  5548 5544 5549 ar
  5549 5545 5546 ar
  5550 5545 5552 1
  5551 5546 5553 1
  5552 5546 5547 ar
  5553 5547 5548 ar
  5554 5548 5554 1
  5555 5548 5549 ar
  5556 5549 5555 1
  5557 5550 5551 1
  5558 5551 5559 1
  5559 5551 5558 1
  5560 5551 5560 1
  5561 5561 5576 1
  5562 5561 5567 1
  5563 5562 5570 2
  5564 5563 5564 1
  5565 5563 5577 1
  5566 5563 5570 am   BACKBONE|DICT|INTERRES
  5567 5564 5569 ar
  5568 5564 5565 ar
  5569 5565 5566 ar
  5570 5565 5572 1
  5571 5566 5567 ar
  5572 5566 5573 1
  5573 5567 5568 ar
  5574 5568 5569 ar
  5575 5568 5574 1
  5576 5569 5575 1
  5577 5570 5571 1
  5578 5571 5578 1
  5579 5571 5580 1
  5580 5571 5579 1
  5581 5581 5587 1
  5582 5581 5596 1
  5583 5582 5590 2
  5584 5583 5590 am   BACKBONE|DICT|INTERRES
  5585 5583 5584 1
  5586 5583 5597 1
  5587 5584 5589 ar
  5588 5584 5585 ar
  5589 5585 5592 1
  5590 5585 5586 ar
  5591 5586 5593 1
  5592 5586 5587 ar
  5593 5587 5588 ar
  5594 5588 5594 1
  5595 5588 5589 ar
  5596 5589 5595 1
  5597 5590 5591 1
  5598 5591 5598 1
  5599 5591 5600 1
  5600 5591 5599 1
  5601 5601 5616 1
  5602 5601 5607 1
  5603 5602 5610 2
  5604 5603 5617 1
  5605 5603 5610 am   BACKBONE|DICT|INTERRES
  5606 5603 5604 1
  5607 5604 5605 ar
  5608 5604 5609 ar
  5609 5605 5612 1
  5610 5605 5606 ar
  5611 5606 5607 ar
  5612 5606 5613 1
  5613 5607 5608 ar
  5614 5608 5609 ar
  5615 5608 5614 1
  5616 5609 5615 1
  5617 5610 5611 1
  5618 5611 5619 1
  5619 5611 5618 1
  5620 5611 5620 1
  5621 5621 5636 1
  5622 5621 5627 1
  5623 5622 5630 2
  5624 5623 5624 1
  5625 5623 5637 1
  5626 5623 5630 am   BACKBONE|DICT|INTERRES
  5627 5624 5625 ar
  5628 5624 5629 ar
  5629 5625 5626 ar
  5630 5625 5632 1
  5631 5626 5633 1
  5632 5626 5627 ar
  5633 5627 5628 ar
  5634 5628 5634 1
  5635 5628 5629 ar
  5636 5629 5635 1
  5637 5630 5631 1
  5638 5631 5639 1
  5639 5631 5638 1
  5640 5631 5640 1
  5641 5641 5656 1
  5642 5641 5647 1
  5643 5642 5650 2
  5644 5643 5644 1
  5645 5643 5657 1
  5646 5643 5650 am   BACKBONE|DICT|INTERRES
  5647 5644 5649 ar
  5648 5644 5645 ar
  5649 5645 5646 ar
  5650 5645 5652 1
  5651 5646 5647 ar
  5652 5646 5653 1
  5653 5647 5648 ar
  5654 5648 5649 ar
  5655 5648 5654 1
  5656 5649 5655 1
  5657 5650 5651 1
  5658 5651 5658 1
  5659 5651 5660 1
  5660 5651 5659 1
  5661 5661 5667 1
  5662 5661 5676 1
  5663 5662 5670 2
  5664 5663 5670 am   BACKBONE|DICT|INTERRES
  5665 5663 5664 1
  5666 5663 5677 1
  5667 5664 5669 ar
  5668 5664 5665 ar
  5669 5665 5672 1
  5670 5665 5666 ar
  5671 5666 5673 1
  5672 5666 5667 ar
  5673 5667 5668 ar
  5674 5668 5674 1
  5675 5668 5669 ar
  5676 5669 5675 1
  5677 5670 5671 1
  5678 5671 5678 1
  5679 5671 5680 1
  5680 5671 5679 1
  5681 5681 5696 1
  5682 5681 5687 1
  5683 5682 5690 2
  5684 5683 5697 1
  5685 5683 5690 am   BACKBONE|DICT|INTERRES
  5686 5683 5684 1
  5687 5684 5685 ar
  5688 5684 5689 ar
  5689 5685 5692 1
  5690 5685 5686 ar
  5691 5686 5687 ar
  5692 5686 5693 1
  5693 5687 5688 ar
  5694 5688 5689 ar
  5695 5688 5694 1
  5696 5689 5695 1
  5697 5690 5691 1
  5698 5691 5699 1
  5699 5691 5698 1
  5700 5691 5700 1
  5701 5701 5716 1
  5702 5701 5707 1
  5703 5702 5710 2
  5704 5703 5704 1
  5705 5703 5717 1
  5706 5703 5710 am   BACKBONE|DICT|INTERRES
  5707 5704 5705 ar
  5708 5704 5709 ar
  5709 5705 5706 ar
  5710 5705 5712 1
  5711 5706 5713 1
  5712 5706 5707 ar
  5713 5707 5708 ar
  5714 5708 5714 1
  5715 5708 5709 ar
  5716 5709 5715 1
  5717 5710 5711 1
  5718 5711 5719 1
  5719 5711 5718 1
  5720 5711 5720 1
  5721 5721 5736 1
  5722 5721 5727 1
  5723 5722 5730 2
  5724 5723 5724 1
  5725 5723 5737 1
  5726 5723 5730 am   BACKBONE|DICT|INTERRES
  5727 5724 5729 ar
  5728 5724 5725 ar
  5729 5725 5726 ar
  5730 5725 5732 1
  5731 5726 5727 ar
  5732 5726 5733 1
  5733 5727 5728 ar
  5734 5728 5729 ar
  5735 5728 5734 1
  5736 5729 5735 1
  5737 5730 5731 1
  5738 5731 5738 1
  5739 5731 5740 1
  5740 5731 5739 1
  5741 5741 5747 1
  5742 5741 5756 1
  5743 5742 5750 2
  5744 5743 5750 am   BACKBONE|DICT|INTERRES
  5745 5743 5744 1
  5746 5743 5757 1
  5747 5744 5749 ar
  5748 5744 5745 ar
  5749 5745 5752 1
  5750 5745 5746 ar
  5751 5746 5753 1
  5752 5746 5747 ar
  5753 5747 5748 ar
  5754 5748 5754 1
  5755 5748 5749 ar
  5756 5749 5755 1
  5757 5750 5751 1
  5758 5751 5758 1
  5759 5751 5760 1
  5760 5751 5759 1
  5761 5761 5776 1
  5762 5761 5767 1
  5763 5762 5770 2
  5764 5763 5777 1
  5765 5763 5770 am   BACKBONE|DICT|INTERRES
  5766 5763 5764 1
  5767 5764 5765 ar
  5768 5764 5769 ar
  5769 5765 5772 1
  5770 5765 5766 ar
  5771 5766 5767 ar
  5772 5766 5773 1
  5773 5767 5768 ar
  5774 5768 5769 ar
  5775 5768 5774 1
  5776 5769 5775 1
  5777 5770 5771 1
  5778 5771 5779 1
  5779 5771 5778 1
  5780 5771 5780 1
  5781 5781 5796 1
  5782 5781 5787 1
  5783 5782 5790 2
  5784 5783 5784 1
  5785 5783 5797 1
  5786 5783 5790 am   BACKBONE|DICT|INTERRES
  5787 5784 5785 ar
  5788 5784 5789 ar
  5789 5785 5786 ar
  5790 5785 5792 1
  5791 5786 5793 1
  5792 5786 5787 ar
  5793 5787 5788 ar
  5794 5788 5794 1
  5795 5788 5789 ar
  5796 5789 5795 1
  5797 5790 5791 1
  5798 5791 5799 1
  5799 5791 5798 1
  5800 5791 5800 1
  5801 5801 5816 1
  5802 5801 5807 1
  5803 5802 5810 2
  5804 5803 5804 1
  5805 5803 5817 1
  5806 5803 5810 am   BACKBONE|DICT|INTERRES
  5807 5804 5809 ar
  5808 5804 5805 ar
  5809 5805 5806 ar
  5810 5805 5812 1
  5811 5806 5807 ar
  5812 5806 5813 1
  5813 5807 5808 ar
  5814 5808 5809 ar
  5815 5808 5814 1
  5816 5809 5815 1
  5817 5810 5811 1
  5818 5811 5818 1
  5819 5811 5820 1
  5820 5811 5819 1
  5821 5821 5827 1
  5822 5821 5836 1
  5823 5822 5830 2
  5824 5823 5830 am   BACKBONE|DICT|INTERRES
  5825 5823 5824 1
  5826 5823 5837 1
  5827 5824 5829 ar
  5828 5824 5825 ar
  5829 5825 5832 1
  5830 5825 5826 ar
  5831 5826 5833 1
  5832 5826 5827 ar
  5833 5827 5828 ar
  5834 5828 5834 1
  5835 5828 5829 ar
  5836 5829 5835 1
  5837 5830 5831 1
  5838 5831 5838 1
  5839 5831 5840 1
  5840 5831 5839 1
  5841 5841 5856 1
  5842 5841 5847 1
  5843 5842 5850 2
  5844 5843 5857 1
  5845 5843 5850 am   BACKBONE|DICT|INTERRES
  5846 5843 5844 1
  5847 5844 5845 ar
  5848 5844 5849 ar
  5849 5845 5852 1
  5850 5845 5846 ar
  5851 5846 5847 ar
  5852 5846 5853 1
  5853 5847 5848 ar
  5854 5848 5849 ar
  5855 5848 5854 1
  5856 5849 5855 1
  5857 5850 5851 1
  5858 5851 5859 1
  5859 5851 5858 1
  5860 5851 5860 1
  5861 5861 5876 1
  5862 5861 5867 1
  5863 5862 5870 2
  5864 5863 5864 1
  5865 5863 5877 1
  5866 5863 5870 am   BACKBONE|DICT|INTERRES
  5867 5864 5865 ar
  5868 5864 5869 ar
  5869 5865 5866 ar
  5870 5865 5872 1
  5871 5866 5873 1
  5872 5866 5867 ar
  5873 5867 5868 ar
  5874 5868 5874 1
  5875 5868 5869 ar
  5876 5869 5875 1
  5877 5870 5871 1
  5878 5871 5879 1
  5879 5871 5878 1
  5880 5871 5880 1
  5881 5881 5896 1
  5882 5881 5887 1
  5883 5882 5890 2
  5884 5883 5884 1
  5885 5883 5897 1
  5886 5883 5890 am   BACKBONE|DICT|INTERRES
  5887 5884 5889 ar
  5888 5884 5885 ar
  5889 5885 5886 ar
  5890 5885 5892 1
  5891 5886 5887 ar
  5892 5886 5893 1
  5893 5887 5888 ar
  5894 5888 5889 ar
  5895 5888 5894 1
  5896 5889 5895 1
  5897 5890 5891 1
  5898 5891 5898 1
  5899 5891 5900 1
  5900 5891 5899 1
  5901 5901 5907 1
  5902 5901 5916 1
  5903 5902 5910 2
  5904 5903 5910 am   BACKBONE|DICT|INTERRES
  5905 5903 5904 1
  5906 5903 5917 1
  5907 5904 5909 ar
  5908 5904 5905 ar
  5909 5905 5912 1
  5910 5905 5906 ar
  5911 5906 5913 1
  5912 5906 5907 ar
  5913 5907 5908 ar
  5914 5908 5914 1
  5915 5908 5909 ar
  5916 5909 5915 1
  5917 5910 5911 1
  5918 5911 5918 1
  5919 5911 5920 1
  5920 5911 5919 1
  5921 5921 5936 1
  5922 5921 5927 1
  5923 5922 5930 2
  5924 5923 5937 1
  5925 5923 5930 am   BACKBONE|DICT|INTERRES
  5926 5923 5924 1
  5927 5924 5925 ar
  5928 5924 5929 ar
  5929 5925 5932 1
  5930 5925 5926 ar
  5931 5926 5927 ar
  5932 5926 5933 1
  5933 5927 5928 ar
  5934 5928 5929 ar
  5935 5928 5934 1
  5936 5929 5935 1
  5937 5930 5931 1
  5938 5931 5939 1
  5939 5931 5938 1
  5940 5931 5940 1
  5941 5941 5956 1
  5942 5941 5947 1
  5943 5942 5950 2
  5944 5943 5944 1
  5945 5943 5957 1
  5946 5943 5950 am   BACKBONE|DICT|INTERRES
  5947 5944 5945 ar
  5948 5944 5949 ar
  5949 5945 5946 ar
  5950 5945 5952 1
  5951 5946 5953 1
  5952 5946 5947 ar
  5953 5947 5948 ar
  5954 5948 5954 1
  5955 5948 5949 ar
  5956 5949 5955 1
  5957 5950 5951 1
  5958 5951 5959 1
  5959 5951 5958 1
  5960 5951 5960 1
  5961 5961 5976 1
  5962 5961 5967 1
  5963 5962 5970 2
  5964 5963 5964 1
  5965 5963 5977 1
  5966 5963 5970 am   BACKBONE|DICT|INTERRES
  5967 5964 5969 ar
  5968 5964 5965 ar
  5969 5965 5966 ar
  5970 5965 5972 1
  5971 5966 5967 ar
  5972 5966 5973 1
  5973 5967 5968 ar
  5974 5968 5969 ar
  5975 5968 5974 1
  5976 5969 5975 1
  5977 5970 5971 1
  5978 5971 5978 1
  5979 5971 5980 1
  5980 5971 5979 1
  5981 5981 5987 1
  5982 5981 5996 1
  5983 5982 5990 2
  5984 5983 5990 am   BACKBONE|DICT|INTERRES
  5985 5983 5984 1
  5986 5983 5997 1
  5987 5984 5989 ar
  5988 5984 5985 ar
  5989 5985 5992 1
  5990 5985 5986 ar
  5991 5986 5993 1
  5992 5986 5987 ar
  5993 5987 5988 ar
  5994 5988 5994 1
  5995 5988 5989 ar
  5996 5989 5995 1
  5997 5990 5991 1
  5998 5991 5998 1
  5999 5991 6000 1
  6000 5991 5999 1
  6001 6001 6016 1
  6002 6001 6007 1
  6003 6002 6010 2
  6004 6003 6017 1
  6005 6003 6010 am   BACKBONE|DICT|INTERRES
  6006 6003 6004 1
  6007 6004 6005 ar
  6008 6004 6009 ar
  6009 6005 6012 1
  6010 6005 6006 ar
  6011 6006 6007 ar
  6012 6006 6013 1
  6013 6007 6008 ar
  6014 6008 6009 ar
  6015 6008 6014 1
  6016 6009 6015 1
  6017 6010 6011 1
  6018 6011 6019 1
  6019 6011 6018 1
  6020 6011 6020 1
  6021 6021 6036 1
  6022 6021 6027 1
  6023 6022 6030 2
  6024 6023 6024 1
  6025 6023 6037 1
  6026 6023 6030 am   BACKBONE|DICT|INTERRES
  6027 6024 6025 ar
  6028 6024 6029 ar
  6029 6025 6026 ar
  6030 6025 6032 1
  6031 6026 6033 1
  6032 6026 6027 ar
  6033 6027 6028 ar
  6034 6028 6034 1
  6035 6028 6029 ar
  6036 6029 6035 1
  6037 6030 6031 1
  6038 6031 6039 1
  6039 6031 6038 1
  6040 6031 6040 1
  6041 6041 6056 1
  6042 6041 6047 1
  6043 6042 6050 2
  6044 6043 6044 1
  6045 6043 6057 1
  6046 6043 6050 am   BACKBONE|DICT|INTERRES
  6047 6044 6049 ar
  6048 6044 6045 ar
  6049 6045 6046 ar
  6050 6045 6052 1
  6051 6046 6047 ar
  6052 6046 6053 1
  6053 6047 6048 ar
  6054 6048 6049 ar
  6055 6048 6054 1
  6056 6049 6055 1
  6057 6050 6051 1
  6058 6051 6058 1
  6059 6051 6060 1
  6060 6051 6059 1
  6061 6061 6067 1
  6062 6061 6076 1
  6063 6062 6070 2
  6064 6063 6070 am   BACKBONE|DICT|INTERRES
  6065 6063 6064 1
  6066 6063 6077 1
  6067 6064 6069 ar
  6068 6064 6065 ar
  6069 6065 6072 1
  6070 6065 6066 ar
  6071 6066 6073 1
  6072 6066 6067 ar
  6073 6067 6068 ar
  6074 6068 6074 1
  6075 6068 6069 ar
  6076 6069 6075 1
  6077 6070 6071 1
  6078 6071 6078 1
  6079 6071 6080 1
  6080 6071 6079 1
  6081 6081 6096 1
  6082 6081 6087 1
  6083 6082 6090 2
  6084 6083 6097 1
  6085 6083 6090 am   BACKBONE|DICT|INTERRES
  6086 6083 6084 1
  6087 6084 6085 ar
  6088 6084 6089 ar
  6089 6085 6092 1
  6090 6085 6086 ar
  6091 6086 6087 ar
  6092 6086 6093 1
  6093 6087 6088 ar
  6094 6088 6089 ar
  6095 6088 6094 1
  6096 6089 6095 1
  6097 6090 6091 1
  6098 6091 6099 1
  6099 6091 6098 1
  6100 6091 6100 1
  6101 6101 6116 1
  6102 6101 6107 1
  6103 6102 6110 2
  6104 6103 6104 1
  6105 6103 6117 1
  6106 6103 6110 am   BACKBONE|DICT|INTERRES
  6107 6104 6105 ar
  6108 6104 6109 ar
  6109 6105 6106 ar
  6110 6105 6112 1
  6111 6106 6113 1
  6112 6106 6107 ar
  6113 6107 6108 ar
  6114 6108 6114 1
  6115 6108 6109 ar
  6116 6109 6115 1
  6117 6110 6111 1
  6118 6111 6119 1
  6119 6111 6118 1
  6120 6111 6120 1
  6121 6121 6136 1
  6122 6121 6127 1
  6123 6122 6130 2
  6124 6123 6124 1
  6125 6123 6137 1
  6126 6123 6130 am   BACKBONE|DICT|INTERRES
  6127 6124 6129 ar
  6128 6124 6125 ar
  6129 6125 6126 ar
  6130 6125 6132 1
  6131 6126 6127 ar
  6132 6126 6133 1
  6133 6127 6128 ar
  6134 6128 6129 ar
  6135 6128 6134 1
  6136 6129 6135 1
  6137 6130 6131 1
  6138 6131 6138 1
  6139 6131 6140 1
  6140 6131 6139 1
  6141 6141 6147 1
  6142 6141 6156 1
  6143 6142 6150 2
  6144 6143 6150 am   BACKBONE|DICT|INTERRES
  6145 6143 6144 1
  6146 6143 6157 1
  6147 6144 6149 ar
  6148 6144 6145 ar
  6149 6145 6152 1
  6150 6145 6146 ar
  6151 6146 6153 1
  6152 6146 6147 ar
  6153 6147 6148 ar
  6154 6148 6154 1
  6155 6148 6149 ar
  6156 6149 6155 1
  6157 6150 6151 1
  6158 6151 6158 1
  6159 6151 6160 1
  6160 6151 6159 1
  6161 6161 6176 1
  6162 6161 6167 1
  6163 6162 6170 2
  6164 6163 6177 1
  6165 6163 6170 am   BACKBONE|DICT|INTERRES
  6166 6163 6164 1
  6167 6164 6165 ar
  6168 6164 6169 ar
  6169 6165 6172 1
  6170 6165 6166 ar
  6171 6166 6167 ar
  6172 6166 6173 1
  6173 6167 6168 ar
  6174 6168 6169 ar
  6175 6168 6174 1
  6176 6169 6175 1
  6177 6170 6171 1
  6178 6171 6179 1
  6179 6171 6178 1
  6180 6171 6180 1
  6181 6181 6196 1
  6182 6181 6187 1
  6183 6182 6190 2
  6184 6183 6184 1
  6185 6183 6197 1
  6186 6183 6190 am   BACKBONE|DICT|INTERRES
  6187 6184 6185 ar
  6188 6184 6189 ar
  6189 6185 6186 ar
  6190 6185 6192 1
  6191 6186 6193 1
  6192 6186 6187 ar
  6193 6187 6188 ar
  6194 6188 6194 1
  6195 6188 6189 ar
  6196 6189 6195 1
  6197 6190 6191 1
  6198 6191 6199 1
  6199 6191 6198 1
  6200 6191 6200 1
  6201 6201 6216 1
  6202 6201 6207 1
  6203 6202 6210 2
  6204 6203 6204 1
  6205 6203 6217 1
  6206 6203 6210 am   BACKBONE|DICT|INTERRES
  6207 6204 6209 ar
  6208 6204 6205 ar
  6209 6205 6206 ar
  6210 6205 6212 1
  6211 6206 6207 ar
  6212 6206 6213 1
  6213 6207 6208 ar
  6214 6208 6209 ar
  6215 6208 6214 1
  6216 6209 6215 1
  6217 6210 6211 1
  6218 6211 6218 1
  6219 6211 6220 1
  6220 6211 6219 1
  6221 6221 6227 1
  6222 6221 6236 1
  6223 6222 6230 2
  6224 6223 6230 am   BACKBONE|DICT|INTERRES
  6225 6223 6224 1
  6226 6223 6237 1
  6227 6224 6229 ar
  6228 6224 6225 ar
  6229 6225 6232 1
  6230 6225 6226 ar
  6231 6226 6233 1
  6232 6226 6227 ar
  6233 6227 6228 ar
  6234 6228 6234 1
  6235 6228 6229 ar
  6236 6229 6235 1
  6237 6230 6231 1
  6238 6231 6238 1
  6239 6231 6240 1
  6240 6231 6239 1
  6241 6241 6256 1
  6242 6241 6247 1
  6243 6242 6250 2
  6244 6243 6257 1
  6245 6243 6250 am   BACKBONE|DICT|INTERRES
  6246 6243 6244 1
  6247 6244 6245 ar
  6248 6244 6249 ar
  6249 6245 6252 1
  6250 6245 6246 ar
  6251 6246 6247 ar
  6252 6246 6253 1
  6253 6247 6248 ar
  6254 6248 6249 ar
  6255 6248 6254 1
  6256 6249 6255 1
  6257 6250 6251 1
  6258 6251 6259 1
  6259 6251 6258 1
  6260 6251 6260 1
  6261 6261 6276 1
  6262 6261 6267 1
  6263 6262 6270 2
  6264 6263 6264 1
  6265 6263 6277 1
  6266 6263 6270 am   BACKBONE|DICT|INTERRES
  6267 6264 6265 ar
  6268 6264 6269 ar
  6269 6265 6266 ar
  6270 6265 6272 1
  6271 6266 6273 1
  6272 6266 6267 ar
  6273 6267 6268 ar
  6274 6268 6274 1
  6275 6268 6269 ar
  6276 6269 6275 1
  6277 6270 6271 1
  6278 6271 6279 1
  6279 6271 6278 1
  6280 6271 6280 1
  6281 6281 6296 1
  6282 6281 6287 1
  6283 6282 6290 2
  6284 6283 6284 1
  6285 6283 6297 1
  6286 6283 6290 am   BACKBONE|DICT|INTERRES
  6287 6284 6289 ar
  6288 6284 6285 ar
  6289 6285 6286 ar
  6290 6285 6292 1
  6291 6286 6287 ar
  6292 6286 6293 1
  6293 6287 6288 ar
  6294 6288 6289 ar
  6295 6288 6294 1
  6296 6289 6295 1
  6297 6290 6291 1
  6298 6291 6298 1
  6299 6291 6300 1
  6300 6291 6299 1
  6301 6301 6307 1
  6302 6301 6316 1
  6303 6302 6310 2
  6304 6303 6310 am   BACKBONE|DICT|INTERRES
  6305 6303 6304 1
  6306 6303 6317 1
  6307 6304 6309 ar
  6308 6304 6305 ar
  6309 6305 6312 1
  6310 6305 6306 ar
  6311 6306 6313 1
  6312 6306 6307 ar
  6313 6307 6308 ar
  6314 6308 6314 1
  6315 6308 6309 ar
  6316 6309 6315 1
  6317 6310 6311 1
  6318 6311 6318 1
  6319 6311 6320 1
  6320 6311 6319 1
  6321 6321 6336 1
  6322 6321 6327 1
  6323 6322 6330 2
  6324 6323 6337 1
  6325 6323 6330 am   BACKBONE|DICT|INTERRES
  6326 6323 6324 1
  6327 6324 6325 ar
  6328 6324 6329 ar
  6329 6325 6332 1
  6330 6325 6326 ar
  6331 6326 6327 ar
  6332 6326 6333 1
  6333 6327 6328 ar
  6334 6328 6329 ar
  6335 6328 6334 1
  6336 6329 6335 1
  6337 6330 6331 1
  6338 6331 6339 1
  6339 6331 6338 1
  6340 6331 6340 1
  6341 6341 6356 1
  6342 6341 6347 1
  6343 6342 6350 2
  6344 6343 6344 1
  6345 6343 6357 1
  6346 6343 6350 am   BACKBONE|DICT|INTERRES
  6347 6344 6345 ar
  6348 6344 6349 ar
  6349 6345 6346 ar
  6350 6345 6352 1
  6351 6346 6353 1
  6352 6346 6347 ar
  6353 6347 6348 ar
  6354 6348 6354 1
  6355 6348 6349 ar
  6356 6349 6355 1
  6357 6350 6351 1
  6358 6351 6359 1
  6359 6351 6358 1
  6360 6351 6360 1
  6361 6361 6376 1
  6362 6361 6367 1
  6363 6362 6370 2
  6364 6363 6364 1
  6365 6363 6377 1
  6366 6363 6370 am   BACKBONE|DICT|INTERRES
  6367 6364 6369 ar
  6368 6364 6365 ar
  6369 6365 6366 ar
  6370 6365 6372 1
  6371 6366 6367 ar
  6372 6366 6373 1
  6373 6367 6368 ar
  6374 6368 6369 ar
  6375 6368 6374 1
  6376 6369 6375 1
  6377 6370 6371 1
  6378 6371 6378 1
  6379 6371 6380 1
  6380 6371 6379 1
  6381 6381 6387 1
  6382 6381 6396 1
  6383 6382 6390 2
  6384 6383 6390 am   BACKBONE|DICT|INTERRES
  6385 6383 6384 1
  6386 6383 6397 1
  6387 6384 6389 ar
  6388 6384 6385 ar
  6389 6385 6392 1
  6390 6385 6386 ar
  6391 6386 6393 1
  6392 6386 6387 ar
  6393 6387 6388 ar
  6394 6388 6394 1
  6395 6388 6389 ar
  6396 6389 6395 1
  6397 6390 6391 1
  6398 6391 6398 1
  6399 6391 6400 1
  6400 6391 6399 1
  6401 6401 6416 1
  6402 6401 6407 1
  6403 6402 6410 2
  6404 6403 6417 1
  6405 6403 6410 am   BACKBONE|DICT|INTERRES
  6406 6403 6404 1
  6407 6404 6405 ar
  6408 6404 6409 ar
  6409 6405 6412 1
  6410 6405 6406 ar
  6411 6406 6407 ar
  6412 6406 6413 1
  6413 6407 6408 ar
  6414 6408 6409 ar
  6415 6408 6414 1
  6416 6409 6415 1
  6417 6410 6411 1
  6418 6411 6419 1
  6419 6411 6418 1
  6420 6411 6420 1
  6421 6421 6436 1
  6422 6421 6427 1
  6423 6422 6430 2
  6424 6423 6424 1
  6425 6423 6437 1
  6426 6423 6430 am   BACKBONE|DICT|INTERRES
  6427 6424 6425 ar
  6428 6424 6429 ar
  6429 6425 6426 ar
  6430 6425 6432 1
  6431 6426 6433 1
  6432 6426 6427 ar
  6433 6427 6428 ar
  6434 6428 6434 1
  6435 6428 6429 ar
  6436 6429 6435 1
  6437 6430 6431 1
  6438 6431 6439 1
  6439 6431 6438 1
  6440 6431 6440 1
  6441 6441 6456 1
  6442 6441 6447 1
  6443 6442 6450 2
  6444 6443 6444 1
  6445 6443 6457 1
  6446 6443 6450 am   BACKBONE|DICT|INTERRES
  6447 6444 6449 ar
  6448 6444 6445 ar
  6449 6445 6446 ar
  6450 6445 6452 1
  6451 6446 6447 ar
  6452 6446 6453 1
  6453 6447 6448 ar
  6454 6448 6449 ar
  6455 6448 6454 1
  6456 6449 6455 1
  6457 6450 6451 1
  6458 6451 6458 1
  6459 6451 6460 1
  6460 6451 6459 1
  6461 6461 6467 1
  6462 6461 6476 1
  6463 6462 6470 2
  6464 6463 6470 am   BACKBONE|DICT|INTERRES
  6465 6463 6464 1
  6466 6463 6477 1
  6467 6464 6469 ar
  6468 6464 6465 ar
  6469 6465 6472 1
  6470 6465 6466 ar
  6471 6466 6473 1
  6472 6466 6467 ar
  6473 6467 6468 ar
  6474 6468 6474 1
  6475 6468 6469 ar
  6476 6469 6475 1
  6477 6470 6471 1
  6478 6471 6478 1
  6479 6471 6480 1
  6480 6471 6479 1
  6481 6481 6496 1
  6482 6481 6487 1
  6483 6482 6490 2
  6484 6483 6497 1
  6485 6483 6490 am   BACKBONE|DICT|INTERRES
  6486 6483 6484 1
  6487 6484 6485 ar
  6488 6484 6489 ar
  6489 6485 6492 1
  6490 6485 6486 ar
  6491 6486 6487 ar
  6492 6486 6493 1
  6493 6487 6488 ar
  6494 6488 6489 ar
  6495 6488 6494 1
  6496 6489 6495 1
  6497 6490 6491 1
  6498 6491 6499 1
  6499 6491 6498 1
  6500 6491 6500 1
  6501 6501 6516 1
  6502 6501 6507 1
  6503 6502 6510 2
  6504 6503 6504 1
  6505 6503 6517 1
  6506 6503 6510 am   BACKBONE|DICT|INTERRES
  6507 6504 6505 ar
  6508 6504 6509 ar
  6509 6505 6506 ar
  6510 6505 6512 1
  6511 6506 6513 1
  6512 6506 6507 ar
  6513 6507 6508 ar
  6514 6508 6514 1
  6515 6508 6509 ar
  6516 6509 6515 1
  6517 6510 6511 1
  6518 6511 6519 1
  6519 6511 6518 1
  6520 6511 6520 1
  6521 6521 6536 1
  6522 6521 6527 1
  6523 6522 6530 2
  6524 6523 6524 1
  6525 6523 6537 1
  6526 6523 6530 am   BACKBONE|DICT|INTERRES
  6527 6524 6529 ar
  6528 6524 6525 ar
  6529 6525 6526 ar
  6530 6525 6532 1
  6531 6526 6527 ar
  6532 6526 6533 1
  6533 6527 6528 ar
  6534 6528 6529 ar
  6535 6528 6534 1
  6536 6529 6535 1
  6537 6530 6531 1
  6538 6531 6538 1
  6539 6531 6540 1
  6540 6531 6539 1
  6541 6541 6547 1
  6542 6541 6556 1
  6543 6542 6550 2
  6544 6543 6550 am   BACKBONE|DICT|INTERRES
  6545 6543 6544 1
  6546 6543 6557 1
  6547 6544 6549 ar
  6548 6544 6545 ar
  6549 6545 6552 1
  6550 6545 6546 ar
  6551 6546 6553 1
  6552 6546 6547 ar
  6553 6547 6548 ar
  6554 6548 6554 1
  6555 6548 6549 ar
  6556 6549 6555 1
  6557 6550 6551 1
  6558 6551 6558 1
  6559 6551 6560 1
  6560 6551 6559 1
  6561 6561 6576 1
  6562 6561 6567 1
  6563 6562 6570 2
  6564 6563 6577 1
  6565 6563 6570 am   BACKBONE|DICT|INTERRES
  6566 6563 6564 1
  6567 6564 6565 ar
  6568 6564 6569 ar
  6569 6565 6572 1
  6570 6565 6566 ar
  6571 6566 6567 ar
  6572 6566 6573 1
  6573 6567 6568 ar
  6574 6568 6569 ar
  6575 6568 6574 1
  6576 6569 6575 1
  6577 6570 6571 1
  6578 6571 6579 1
  6579 6571 6578 1
  6580 6571 6580 1
  6581 6581 6596 1
  6582 6581 6587 1
  6583 6582 6590 2
  6584 6583 6584 1
  6585 6583 6597 1
  6586 6583 6590 am   BACKBONE|DICT|INTERRES
  6587 6584 6585 ar
  6588 6584 6589 ar
  6589 6585 6586 ar
  6590 6585 6592 1
  6591 6586 6593 1
  6592 6586 6587 ar
  6593 6587 6588 ar
  6594 6588 6594 1
  6595 6588 6589 ar
  6596 6589 6595 1
  6597 6590 6591 1
  6598 6591 6599 1
  6599 6591 6598 1
  6600 6591 6600 1
  6601 6601 6616 1
  6602 6601 6607 1
  6603 6602 6610 2
  6604 6603 6604 1
  6605 6603 6617 1
  6606 6603 6610 am   BACKBONE|DICT|INTERRES
  6607 6604 6609 ar
  6608 6604 6605 ar
  6609 6605 6606 ar
  6610 6605 6612 1
  6611 6606 6607 ar
  6612 6606 6613 1
  6613 6607 6608 ar
  6614 6608 6609 ar
  6615 6608 6614 1
  6616 6609 6615 1
  6617 6610 6611 1
  6618 6611 6618 1
  6619 6611 6620 1
  6620 6611 6619 1
  6621 6621 6627 1
  6622 6621 6636 1
  6623 6622 6630 2
  6624 6623 6630 am   BACKBONE|DICT|INTERRES
  6625 6623 6624 1
  6626 6623 6637 1
  6627 6624 6629 ar
  6628 6624 6625 ar
  6629 6625 6632 1
  6630 6625 6626 ar
  6631 6626 6633 1
  6632 6626 6627 ar
  6633 6627 6628 ar
  6634 6628 6634 1
  6635 6628 6629 ar
  6636 6629 6635 1
  6637 6630 6631 1
  6638 6631 6638 1
  6639 6631 6640 1
  6640 6631 6639 1
  6641 6641 6656 1
  6642 6641 6647 1
  6643 6642 6650 2
  6644 6643 6657 1
  6645 6643 6650 am   BACKBONE|DICT|INTERRES
  6646 6643 6644 1
  6647 6644 6645 ar
  6648 6644 6649 ar
  6649 6645 6652 1
  6650 6645 6646 ar
  6651 6646 6647 ar
  6652 6646 6653 1
  6653 6647 6648 ar
  6654 6648 6649 ar
  6655 6648 6654 1
  6656 6649 6655 1
  6657 6650 6651 1
  6658 6651 6659 1
  6659 6651 6658 1
  6660 6651 6660 1
  6661 6661 6676 1
  6662 6661 6667 1
  6663 6662 6670 2
  6664 6663 6664 1
  6665 6663 6677 1
  6666 6663 6670 am   BACKBONE|DICT|INTERRES
  6667 6664 6665 ar
  6668 6664 6669 ar
  6669 6665 6666 ar
  6670 6665 6672 1
  6671 6666 6673 1
  6672 6666 6667 ar
  6673 6667 6668 ar
  6674 6668 6674 1
  6675 6668 6669 ar
  6676 6669 6675 1
  6677 6670 6671 1
  6678 6671 6679 1
  6679 6671 6678 1
  6680 6671 6680 1
  6681 6681 6696 1
  6682 6681 6687 1
  6683 6682 6690 2
  6684 6683 6684 1
  6685 6683 6697 1
  6686 6683 6690 am   BACKBONE|DICT|INTERRES
  6687 6684 6689 ar
  6688 6684 6685 ar
  6689 6685 6686 ar
  6690 6685 6692 1
  6691 6686 6687 ar
  6692 6686 6693 1
  6693 6687 6688 ar
  6694 6688 6689 ar
  6695 6688 6694 1
  6696 6689 6695 1
  6697 6690 6691 1
  6698 6691 6698 1
  6699 6691 6700 1
  6700 6691 6699 1
  6701 6701 6707 1
  6702 6701 6716 1
  6703 6702 6710 2
  6704 6703 6710 am   BACKBONE|DICT|INTERRES
  6705 6703 6704 1
  6706 6703 6717 1
  6707 6704 6709 ar
  6708 6704 6705 ar
  6709 6705 6712 1
  6710 6705 6706 ar
  6711 6706 6713 1
  6712 6706 6707 ar
  6713 6707 6708 ar
  6714 6708 6714 1
  6715 6708 6709 ar
  6716 6709 6715 1
  6717 6710 6711 1
  6718 6711 6718 1
  6719 6711 6720 1
  6720 6711 6719 1
  6721 6721 6736 1
  6722 6721 6727 1
  6723 6722 6730 2
  6724 6723 6737 1
  6725 6723 6730 am   BACKBONE|DICT|INTERRES
  6726 6723 6724 1
  6727 6724 6725 ar
  6728 6724 6729 ar
  6729 6725 6732 1
  6730 6725 6726 ar
  6731 6726 6727 ar
  6732 6726 6733 1
  6733 6727 6728 ar
  6734 6728 6729 ar
  6735 6728 6734 1
  6736 6729 6735 1
  6737 6730 6731 1
  6738 6731 6739 1
  6739 6731 6738 1
  6740 6731 6740 1
  6741 6741 6756 1
  6742 6741 6747 1
  6743 6742 6750 2
  6744 6743 6744 1
  6745 6743 6757 1
  6746 6743 6750 am   BACKBONE|DICT|INTERRES
  6747 6744 6745 ar
  6748 6744 6749 ar
  6749 6745 6746 ar
  6750 6745 6752 1
  6751 6746 6753 1
  6752 6746 6747 ar
  6753 6747 6748 ar
  6754 6748 6754 1
  6755 6748 6749 ar
  6756 6749 6755 1
  6757 6750 6751 1
  6758 6751 6759 1
  6759 6751 6758 1
  6760 6751 6760 1
  6761 6761 6776 1
  6762 6761 6767 1
  6763 6762 6770 2
  6764 6763 6764 1
  6765 6763 6777 1
  6766 6763 6770 am   BACKBONE|DICT|INTERRES
  6767 6764 6769 ar
  6768 6764 6765 ar
  6769 6765 6766 ar
  6770 6765 6772 1
  6771 6766 6767 ar
  6772 6766 6773 1
  6773 6767 6768 ar
  6774 6768 6769 ar
  6775 6768 6774 1
  6776 6769 6775 1
  6777 6770 6771 1
  6778 6771 6778 1
  6779 6771 6780 1
  6780 6771 6779 1
  6781 6781 6787 1
  6782 6781 6796 1
  6783 6782 6790 2
  6784 6783 6790 am   BACKBONE|DICT|INTERRES
  6785 6783 6784 1
  6786 6783 6797 1
  6787 6784 6789 ar
  6788 6784 6785 ar
  6789 6785 6792 1
  6790 6785 6786 ar
  6791 6786 6793 1
  6792 6786 6787 ar
  6793 6787 6788 ar
  6794 6788 6794 1
  6795 6788 6789 ar
  6796 6789 6795 1
  6797 6790 6791 1
  6798 6791 6798 1
  6799 6791 6800 1
  6800 6791 6799 1
  6801 6801 6816 1
  6802 6801 6807 1
  6803 6802 6810 2
  6804 6803 6817 1
  6805 6803 6810 am   BACKBONE|DICT|INTERRES
  6806 6803 6804 1
  6807 6804 6805 ar
  6808 6804 6809 ar
  6809 6805 6812 1
  6810 6805 6806 ar
  6811 6806 6807 ar
  6812 6806 6813 1
  6813 6807 6808 ar
  6814 6808 6809 ar
  6815 6808 6814 1
  6816 6809 6815 1
  6817 6810 6811 1
  6818 6811 6819 1
  6819 6811 6818 1
  6820 6811 6820 1
  6821 6821 6836 1
  6822 6821 6827 1
  6823 6822 6830 2
  6824 6823 6824 1
  6825 6823 6837 1
  6826 6823 6830 am   BACKBONE|DICT|INTERRES
  6827 6824 6825 ar
  6828 6824 6829 ar
  6829 6825 6826 ar
  6830 6825 6832 1
  6831 6826 6833 1
  6832 6826 6827 ar
  6833 6827 6828 ar
  6834 6828 6834 1
  6835 6828 6829 ar
  6836 6829 6835 1
  6837 6830 6831 1
  6838 6831 6839 1
  6839 6831 6838 1
  6840 6831 6840 1
  6841 6841 6856 1
  6842 6841 6847 1
  6843 6842 6850 2
  6844 6843 6844 1
  6845 6843 6857 1
  6846 6843 6850 am   BACKBONE|DICT|INTERRES
  6847 6844 6849 ar
  6848 6844 6845 ar
  6849 6845 6846 ar
  6850 6845 6852 1
  6851 6846 6847 ar
  6852 6846 6853 1
  6853 6847 6848 ar
  6854 6848 6849 ar
  6855 6848 6854 1
  6856 6849 6855 1
  6857 6850 6851 1
  6858 6851 6858 1
  6859 6851 6860 1
  6860 6851 6859 1
  6861 6861 6867 1
  6862 6861 6876 1
  6863 6862 6870 2
  6864 6863 6870 am   BACKBONE|DICT|INTERRES
  6865 6863 6864 1
  6866 6863 6877 1
  6867 6864 6869 ar
  6868 6864 6865 ar
  6869 6865 6872 1
  6870 6865 6866 ar
  6871 6866 6873 1
  6872 6866 6867 ar
  6873 6867 6868 ar
  6874 6868 6874 1
  6875 6868 6869 ar
  6876 6869 6875 1
  6877 6870 6871 1
  6878 6871 6878 1
  6879 6871 6880 1
  6880 6871 6879 1
  6881 6881 6896 1
  6882 6881 6887 1
  6883 6882 6890 2
  6884 6883 6897 1
  6885 6883 6890 am   BACKBONE|DICT|INTERRES
  6886 6883 6884 1
  6887 6884 6885 ar
  6888 6884 6889 ar
  6889 6885 6892 1
  6890 6885 6886 ar
  6891 6886 6887 ar
  6892 6886 6893 1
  6893 6887 6888 ar
  6894 6888 6889 ar
  6895 6888 6894 1
  6896 6889 6895 1
  6897 6890 6891 1
  6898 6891 6899 1
  6899 6891 6898 1
  6900 6891 6900 1
  6901 6901 6916 1
  6902 6901 6907 1
  6903 6902 6910 2
  6904 6903 6904 1
  6905 6903 6917 1
  6906 6903 6910 am   BACKBONE|DICT|INTERRES
  6907 6904 6905 ar
  6908 6904 6909 ar
  6909 6905 6906 ar
  6910 6905 6912 1
  6911 6906 6913 1
  6912 6906 6907 ar
  6913 6907 6908 ar
  6914 6908 6914 1
  6915 6908 6909 ar
  6916 6909 6915 1
  6917 6910 6911 1
  6918 6911 6919 1
  6919 6911 6918 1
  6920 6911 6920 1
  6921 6921 6936 1
  6922 6921 6927 1
  6923 6922 6930 2
  6924 6923 6924 1
  6925 6923 6937 1
  6926 6923 6930 am   BACKBONE|DICT|INTERRES
  6927 6924 6929 ar
  6928 6924 6925 ar
  6929 6925 6926 ar
  6930 6925 6932 1
  6931 6926 6927 ar
  6932 6926 6933 1
  6933 6927 6928 ar
  6934 6928 6929 ar
  6935 6928 6934 1
  6936 6929 6935 1
  6937 6930 6931 1
  6938 6931 6938 1
  6939 6931 6940 1
  6940 6931 6939 1
  6941 6941 6947 1
  6942 6941 6956 1
  6943 6942 6950 2
  6944 6943 6950 am   BACKBONE|DICT|INTERRES
  6945 6943 6944 1
  6946 6943 6957 1
  6947 6944 6949 ar
  6948 6944 6945 ar
  6949 6945 6952 1
  6950 6945 6946 ar
  6951 6946 6953 1
  6952 6946 6947 ar
  6953 6947 6948 ar
  6954 6948 6954 1
  6955 6948 6949 ar
  6956 6949 6955 1
  6957 6950 6951 1
  6958 6951 6958 1
  6959 6951 6960 1
  6960 6951 6959 1
  6961 6961 6976 1
  6962 6961 6967 1
  6963 6962 6970 2
  6964 6963 6977 1
  6965 6963 6970 am   BACKBONE|DICT|INTERRES
  6966 6963 6964 1
  6967 6964 6965 ar
  6968 6964 6969 ar
  6969 6965 6972 1
  6970 6965 6966 ar
  6971 6966 6967 ar
  6972 6966 6973 1
  6973 6967 6968 ar
  6974 6968 6969 ar
  6975 6968 6974 1
  6976 6969 6975 1
  6977 6970 6971 1
  6978 6971 6979 1
  6979 6971 6978 1
  6980 6971 6980 1
  6981 6981 6996 1
  6982 6981 6987 1
  6983 6982 6990 2
  6984 6983 6984 1
  6985 6983 6997 1
  6986 6983 6990 am   BACKBONE|DICT|INTERRES
  6987 6984 6985 ar
  6988 6984 6989 ar
  6989 6985 6986 ar
  6990 6985 6992 1
  6991 6986 6993 1
  6992 6986 6987 ar
  6993 6987 6988 ar
  6994 6988 6994 1
  6995 6988 6989 ar
  6996 6989 6995 1
  6997 6990 6991 1
  6998 6991 6999 1
  6999 6991 6998 1
  7000 6991 7000 1
  7001 7001 7016 1
  7002 7001 7007 1
  7003 7002 7010 2
  7004 7003 7004 1
  7005 7003 7017 1
  7006 7003 7010 am   BACKBONE|DICT|INTERRES
  7007 7004 7009 ar
  7008 7004 7005 ar
  7009 7005 7006 ar
  7010 7005 7012 1
  7011 7006 7007 ar
  7012 7006 7013 1
  7013 7007 7008 ar
  7014 7008 7009 ar
  7015 7008 7014 1
  7016 7009 7015 1
  7017 7010 7011 1
  7018 7011 7018 1
  7019 7011 7020 1
  7020 7011 7019 1
  7021 7021 7027 1
  7022 7021 7036 1
  7023 7022 7030 2
  7024 7023 7030 am   BACKBONE|DICT|INTERRES
  7025 7023 7024 1
  7026 7023 7037 1
  7027 7024 7029 ar
  7028 7024 7025 ar
  7029 7025 7032 1
  7030 7025 7026 ar
  7031 7026 7033 1
  7032 7026 7027 ar
  7033 7027 7028 ar
  7034 7028 7034 1
  7035 7028 7029 ar
  7036 7029 7035 1
  7037 7030 7031 1
  7038 7031 7038 1
  7039 7031 7040 1
  7040 7031 7039 1
  7041 7041 7056 1
  7042 7041 7047 1
  7043 7042 7050 2
  7044 7043 7057 1
  7045 7043 7050 am   BACKBONE|DICT|INTERRES
  7046 7043 7044 1
  7047 7044 7045 ar
  7048 7044 7049 ar
  7049 7045 7052 1
  7050 7045 7046 ar
  7051 7046 7047 ar
  7052 7046 7053 1
  7053 7047 7048 ar
  7054 7048 7049 ar
  7055 7048 7054 1
  7056 7049 7055 1
  7057 7050 7051 1
  7058 7051 7059 1
  7059 7051 7058 1
  7060 7051 7060 1
  7061 7061 7076 1
  7062 7061 7067 1
  7063 7062 7070 2
  7064 7063 7064 1
  7065 7063 7077 1
  7066 7063 7070 am   BACKBONE|DICT|INTERRES
  7067 7064 7065 ar
  7068 7064 7069 ar
  7069 7065 7066 ar
  7070 7065 7072 1
  7071 7066 7073 1
  7072 7066 7067 ar
  7073 7067 7068 ar
  7074 7068 7074 1
  7075 7068 7069 ar
  7076 7069 7075 1
  7077 7070 7071 1
  7078 7071 7079 1
  7079 7071 7078 1
  7080 7071 7080 1
  7081 7081 7096 1
  7082 7081 7087 1
  7083 7082 7090 2
  7084 7083 7084 1
  7085 7083 7097 1
  7086 7083 7090 am   BACKBONE|DICT|INTERRES
  7087 7084 7089 ar
  7088 7084 7085 ar
  7089 7085 7086 ar
  7090 7085 7092 1
  7091 7086 7087 ar
  7092 7086 7093 1
  7093 7087 7088 ar
  7094 7088 7089 ar
  7095 7088 7094 1
  7096 7089 7095 1
  7097 7090 7091 1
  7098 7091 7098 1
  7099 7091 7100 1
  7100 7091 7099 1
  7101 7101 7107 1
  7102 7101 7116 1
  7103 7102 7110 2
  7104 7103 7110 am   BACKBONE|DICT|INTERRES
  7105 7103 7104 1
  7106 7103 7117 1
  7107 7104 7109 ar
  7108 7104 7105 ar
  7109 7105 7112 1
  7110 7105 7106 ar
  7111 7106 7113 1
  7112 7106 7107 ar
  7113 7107 7108 ar
  7114 7108 7114 1
  7115 7108 7109 ar
  7116 7109 7115 1
  7117 7110 7111 1
  7118 7111 7118 1
  7119 7111 7120 1
  7120 7111 7119 1
  7121 7121 7136 1
  7122 7121 7127 1
  7123 7122 7130 2
  7124 7123 7137 1
  7125 7123 7130 am   BACKBONE|DICT|INTERRES
  7126 7123 7124 1
  7127 7124 7125 ar
  7128 7124 7129 ar
  7129 7125 7132 1
  7130 7125 7126 ar
  7131 7126 7127 ar
  7132 7126 7133 1
  7133 7127 7128 ar
  7134 7128 7129 ar
  7135 7128 7134 1
  7136 7129 7135 1
  7137 7130 7131 1
  7138 7131 7139 1
  7139 7131 7138 1
  7140 7131 7140 1
  7141 7141 7156 1
  7142 7141 7147 1
  7143 7142 7150 2
  7144 7143 7144 1
  7145 7143 7157 1
  7146 7143 7150 am   BACKBONE|DICT|INTERRES
  7147 7144 7145 ar
  7148 7144 7149 ar
  7149 7145 7146 ar
  7150 7145 7152 1
  7151 7146 7153 1
  7152 7146 7147 ar
  7153 7147 7148 ar
  7154 7148 7154 1
  7155 7148 7149 ar
  7156 7149 7155 1
  7157 7150 7151 1
  7158 7151 7159 1
  7159 7151 7158 1
  7160 7151 7160 1
  7161 7161 7176 1
  7162 7161 7167 1
  7163 7162 7170 2
  7164 7163 7164 1
  7165 7163 7177 1
  7166 7163 7170 am   BACKBONE|DICT|INTERRES
  7167 7164 7169 ar
  7168 7164 7165 ar
  7169 7165 7166 ar
  7170 7165 7172 1
  7171 7166 7167 ar
  7172 7166 7173 1
  7173 7167 7168 ar
  7174 7168 7169 ar
  7175 7168 7174 1
  7176 7169 7175 1
  7177 7170 7171 1
  7178 7171 7178 1
  7179 7171 7180 1
  7180 7171 7179 1
  7181 7181 7187 1
  7182 7181 7196 1
  7183 7182 7190 2
  7184 7183 7190 am   BACKBONE|DICT|INTERRES
  7185 7183 7184 1
  7186 7183 7197 1
  7187 7184 7189 ar
  7188 7184 7185 ar
  7189 7185 7192 1
  7190 7185 7186 ar
  7191 7186 7193 1
  7192 7186 7187 ar
  7193 7187 7188 ar
  7194 7188 7194 1
  7195 7188 7189 ar
  7196 7189 7195 1
  7197 7190 7191 1
  7198 7191 7198 1
  7199 7191 7200 1
  7200 7191 7199 1
  7201 7201 7216 1
  7202 7201 7207 1
  7203 7202 7210 2
  7204 7203 7217 1
  7205 7203 7210 am   BACKBONE|DICT|INTERRES
  7206 7203 7204 1
  7207 7204 7205 ar
  7208 7204 7209 ar
  7209 7205 7212 1
  7210 7205 7206 ar
  7211 7206 7207 ar
  7212 7206 7213 1
  7213 7207 7208 ar
  7214 7208 7209 ar
  7215 7208 7214 1
  7216 7209 7215 1
  7217 7210 7211 1
  7218 7211 7219 1
  7219 7211 7218 1
  7220 7211 7220 1
  7221 7221 7236 1
  7222 7221 7227 1
  7223 7222 7230 2
  7224 7223 7224 1
  7225 7223 7237 1
  7226 7223 7230 am   BACKBONE|DICT|INTERRES
  7227 7224 7225 ar
  7228 7224 7229 ar
  7229 7225 7226 ar
  7230 7225 7232 1
  7231 7226 7233 1
  7232 7226 7227 ar
  7233 7227 7228 ar
  7234 7228 7234 1
  7235 7228 7229 ar
  7236 7229 7235 1
  7237 7230 7231 1
  7238 7231 7239 1
  7239 7231 7238 1
  7240 7231 7240 1
  7241 7241 7256 1
  7242 7241 7247 1
  7243 7242 7250 2
  7244 7243 7244 1
  7245 7243 7257 1
  7246 7243 7250 am   BACKBONE|DICT|INTERRES
  7247 7244 7249 ar
  7248 7244 7245 ar
  7249 7245 7246 ar
  7250 7245 7252 1
  7251 7246 7247 ar
  7252 7246 7253 1
  7253 7247 7248 ar
  7254 7248 7249 ar
  7255 7248 7254 1
  7256 7249 7255 1
  7257 7250 7251 1
  7258 7251 7258 1
  7259 7251 7260 1
  7260 7251 7259 1
  7261 7261 7267 1
  7262 7261 7276 1
  7263 7262 7270 2
  7264 7263 7270 am   BACKBONE|DICT|INTERRES
  7265 7263 7264 1
  7266 7263 7277 1
  7267 7264 7269 ar
  7268 7264 7265 ar
  7269 7265 7272 1
  7270 7265 7266 ar
  7271 7266 7273 1
  7272 7266 7267 ar
  7273 7267 7268 ar
  7274 7268 7274 1
  7275 7268 7269 ar
  7276 7269 7275 1
  7277 7270 7271 1
  7278 7271 7278 1
  7279 7271 7280 1
  7280 7271 7279 1
  7281 7281 7296 1
  7282 7281 7287 1
  7283 7282 7290 2
  7284 7283 7297 1
  7285 7283 7290 am   BACKBONE|DICT|INTERRES
  7286 7283 7284 1
  7287 7284 7285 ar
  7288 7284 7289 ar
  7289 7285 7292 1
  7290 7285 7286 ar
  7291 7286 7287 ar
  7292 7286 7293 1
  7293 7287 7288 ar
  7294 7288 7289 ar
  7295 7288 7294 1
  7296 7289 7295 1
  7297 7290 7291 1
  7298 7291 7299 1
  7299 7291 7298 1
  7300 7291 7300 1
  7301 7301 7316 1
  7302 7301 7307 1
  7303 7302 7310 2
  7304 7303 7304 1
  7305 7303 7317 1
  7306 7303 7310 am   BACKBONE|DICT|INTERRES
  7307 7304 7305 ar
  7308 7304 7309 ar
  7309 7305 7306 ar
  7310 7305 7312 1
  7311 7306 7313 1
  7312 7306 7307 ar
  7313 7307 7308 ar
  7314 7308 7314 1
  7315 7308 7309 ar
  7316 7309 7315 1
  7317 7310 7311 1
  7318 7311 7319 1
  7319 7311 7318 1
  7320 7311 7320 1
  7321 7321 7336 1
  7322 7321 7327 1
  7323 7322 7330 2
  7324 7323 7324 1
  7325 7323 7337 1
  7326 7323 7330 am   BACKBONE|DICT|INTERRES
  7327 7324 7329 ar
  7328 7324 7325 ar
  7329 7325 7326 ar
  7330 7325 7332 1
  7331 7326 7327 ar
  7332 7326 7333 1
  7333 7327 7328 ar
  7334 7328 7329 ar
  7335 7328 7334 1
  7336 7329 7335 1
  7337 7330 7331 1
  7338 7331 7338 1
  7339 7331 7340 1
  7340 7331 7339 1
  7341 7341 7347 1
  7342 7341 7356 1
  7343 7342 7350 2
  7344 7343 7350 am   BACKBONE|DICT|INTERRES
  7345 7343 7344 1
  7346 7343 7357 1
  7347 7344 7349 ar
  7348 7344 7345 ar
  7349 7345 7352 1
  7350 7345 7346 ar
  7351 7346 7353 1
  7352 7346 7347 ar
  7353 7347 7348 ar
  7354 7348 7354 1
  7355 7348 7349 ar
  7356 7349 7355 1
  7357 7350 7351 1
  7358 7351 7358 1
  7359 7351 7360 1
  7360 7351 7359 1
  7361 7361 7376 1
  7362 7361 7367 1
  7363 7362 7370 2
  7364 7363 7377 1
  7365 7363 7370 am   BACKBONE|DICT|INTERRES
  7366 7363 7364 1
  7367 7364 7365 ar
  7368 7364 7369 ar
  7369 7365 7372 1
  7370 7365 7366 ar
  7371 7366 7367 ar
  7372 7366 7373 1
  7373 7367 7368 ar
  7374 7368 7369 ar
  7375 7368 7374 1
  7376 7369 7375 1
  7377 7370 7371 1
  7378 7371 7379 1
  7379 7371 7378 1
  7380 7371 7380 1
  7381 7381 7396 1
  7382 7381 7387 1
  7383 7382 7390 2
  7384 7383 7384 1
  7385 7383 7397 1
  7386 7383 7390 am   BACKBONE|DICT|INTERRES
  7387 7384 7385 ar
  7388 7384 7389 ar
  7389 7385 7386 ar
  7390 7385 7392 1
  7391 7386 7393 1
  7392 7386 7387 ar
  7393 7387 7388 ar
  7394 7388 7394 1
  7395 7388 7389 ar
  7396 7389 7395 1
  7397 7390 7391 1
  7398 7391 7399 1
  7399 7391 7398 1
  7400 7391 7400 1
  7401 7401 7416 1
  7402 7401 7407 1
  7403 7402 7410 2
  7404 7403 7404 1
  7405 7403 7417 1
  7406 7403 7410 am   BACKBONE|DICT|INTERRES
  7407 7404 7409 ar
  7408 7404 7405 ar
  7409 7405 7406 ar
  7410 7405 7412 1
  7411 7406 7407 ar
  7412 7406 7413 1
  7413 7407 7408 ar
  7414 7408 7409 ar
  7415 7408 7414 1
  7416 7409 7415 1
  7417 7410 7411 1
  7418 7411 7418 1
  7419 7411 7420 1
  7420 7411 7419 1
  7421 7421 7427 1
  7422 7421 7436 1
  7423 7422 7430 2
  7424 7423 7430 am   BACKBONE|DICT|INTERRES
  7425 7423 7424 1
  7426 7423 7437 1
  7427 7424 7429 ar
  7428 7424 7425 ar
  7429 7425 7432 1
  7430 7425 7426 ar
  7431 7426 7433 1
  7432 7426 7427 ar
  7433 7427 7428 ar
  7434 7428 7434 1
  7435 7428 7429 ar
  7436 7429 7435 1
  7437 7430 7431 1
  7438 7431 7438 1
  7439 7431 7440 1
  7440 7431 7439 1
  7441 7441 7456 1
  7442 7441 7447 1
  7443 7442 7450 2
  7444 7443 7457 1
  7445 7443 7450 am   BACKBONE|DICT|INTERRES
  7446 7443 7444 1
  7447 7444 7445 ar
  7448 7444 7449 ar
  7449 7445 7452 1
  7450 7445 7446 ar
  7451 7446 7447 ar
  7452 7446 7453 1
  7453 7447 7448 ar
  7454 7448 7449 ar
  7455 7448 7454 1
  7456 7449 7455 1
  7457 7450 7451 1
  7458 7451 7459 1
  7459 7451 7458 1
  7460 7451 7460 1
  7461 7461 7476 1
  7462 7461 7467 1
  7463 7462 7470 2
  7464 7463 7464 1
  7465 7463 7477 1
  7466 7463 7470 am   BACKBONE|DICT|INTERRES
  7467 7464 7465 ar
  7468 7464 7469 ar
  7469 7465 7466 ar
  7470 7465 7472 1
  7471 7466 7473 1
  7472 7466 7467 ar
  7473 7467 7468 ar
  7474 7468 7474 1
  7475 7468 7469 ar
  7476 7469 7475 1
  7477 7470 7471 1
  7478 7471 7479 1
  7479 7471 7478 1
  7480 7471 7480 1
  7481 7481 7496 1
  7482 7481 7487 1
  7483 7482 7490 2
  7484 7483 7484 1
  7485 7483 7497 1
  7486 7483 7490 am   BACKBONE|DICT|INTERRES
  7487 7484 7489 ar
  7488 7484 7485 ar
  7489 7485 7486 ar
  7490 7485 7492 1
  7491 7486 7487 ar
  7492 7486 7493 1
  7493 7487 7488 ar
  7494 7488 7489 ar
  7495 7488 7494 1
  7496 7489 7495 1
  7497 7490 7491 1
  7498 7491 7498 1
  7499 7491 7500 1
  7500 7491 7499 1
  7501 7501 7507 1
  7502 7501 7516 1
  7503 7502 7510 2
  7504 7503 7510 am   BACKBONE|DICT|INTERRES
  7505 7503 7504 1
  7506 7503 7517 1
  7507 7504 7509 ar
  7508 7504 7505 ar
  7509 7505 7512 1
  7510 7505 7506 ar
  7511 7506 7513 1
  7512 7506 7507 ar
  7513 7507 7508 ar
  7514 7508 7514 1
  7515 7508 7509 ar
  7516 7509 7515 1
  7517 7510 7511 1
  7518 7511 7518 1
  7519 7511 7520 1
  7520 7511 7519 1
  7521 7521 7536 1
  7522 7521 7527 1
  7523 7522 7530 2
  7524 7523 7537 1
  7525 7523 7530 am   BACKBONE|DICT|INTERRES
  7526 7523 7524 1
  7527 7524 7525 ar
  7528 7524 7529 ar
  7529 7525 7532 1
  7530 7525 7526 ar
  7531 7526 7527 ar
  7532 7526 7533 1
  7533 7527 7528 ar
  7534 7528 7529 ar
  7535 7528 7534 1
  7536 7529 7535 1
  7537 7530 7531 1
  7538 7531 7539 1
  7539 7531 7538 1
  7540 7531 7540 1
  7541 7541 7556 1
  7542 7541 7547 1
  7543 7542 7550 2
  7544 7543 7544 1
  7545 7543 7557 1
  7546 7543 7550 am   BACKBONE|DICT|INTERRES
  7547 7544 7545 ar
  7548 7544 7549 ar
  7549 7545 7546 ar
  7550 7545 7552 1
  7551 7546 7553 1
  7552 7546 7547 ar
  7553 7547 7548 ar
  7554 7548 7554 1
  7555 7548 7549 ar
  7556 7549 7555 1
  7557 7550 7551 1
  7558 7551 7559 1
  7559 7551 7558 1
  7560 7551 7560 1
  7561 7561 7576 1
  7562 7561 7567 1
  7563 7562 7570 2
  7564 7563 7564 1
  7565 7563 7577 1
  7566 7563 7570 am   BACKBONE|DICT|INTERRES
  7567 7564 7569 ar
  7568 7564 7565 ar
  7569 7565 7566 ar
  7570 7565 7572 1
  7571 7566 7567 ar
  7572 7566 7573 1
  7573 7567 7568 ar
  7574 7568 7569 ar
  7575 7568 7574 1
  7576 7569 7575 1
  7577 7570 7571 1
  7578 7571 7578 1
  7579 7571 7580 1
  7580 7571 7579 1
  7581 7581 7587 1
  7582 7581 7596 1
  7583 7582 7590 2
  7584 7583 7590 am   BACKBONE|DICT|INTERRES
  7585 7583 7584 1
  7586 7583 7597 1
  7587 7584 7589 ar
  7588 7584 7585 ar
  7589 7585 7592 1
  7590 7585 7586 ar
  7591 7586 7593 1
  7592 7586 7587 ar
  7593 7587 7588 ar
  7594 7588 7594 1
  7595 7588 7589 ar
  7596 7589 7595 1
  7597 7590 7591 1
  7598 7591 7598 1
  7599 7591 7600 1
  7600 7591 7599 1
  7601 7601 7616 1
  7602 7601 7607 1
  7603 7602 7610 2
  7604 7603 7617 1
  7605 7603 7610 am   BACKBONE|DICT|INTERRES
  7606 7603 7604 1
  7607 7604 7605 ar
  7608 7604 7609 ar
  7609 7605 7612 1
  7610 7605 7606 ar
  7611 7606 7607 ar
  7612 7606 7613 1
  7613 7607 7608 ar
  7614 7608 7609 ar
  7615 7608 7614 1
  7616 7609 7615 1
  7617 7610 7611 1
  7618 7611 7619 1
  7619 7611 7618 1
  7620 7611 7620 1
  7621 7621 7636 1
  7622 7621 7627 1
  7623 7622 7630 2
  7624 7623 7624 1
  7625 7623 7637 1
  7626 7623 7630 am   BACKBONE|DICT|INTERRES
  7627 7624 7625 ar
  7628 7624 7629 ar
  7629 7625 7626 ar
  7630 7625 7632 1
  7631 7626 7633 1
  7632 7626 7627 ar
  7633 7627 7628 ar
  7634 7628 7634 1
  7635 7628 7629 ar
  7636 7629 7635 1
  7637 7630 7631 1
  7638 7631 7639 1
  7639 7631 7638 1
  7640 7631 7640 1
  7641 7641 7656 1
  7642 7641 7647 1
  7643 7642 7650 2
  7644 7643 7644 1
  7645 7643 7657 1
  7646 7643 7650 am   BACKBONE|DICT|INTERRES
  7647 7644 7649 ar
  7648 7644 7645 ar
  7649 7645 7646 ar
  7650 7645 7652 1
  7651 7646 7647 ar
  7652 7646 7653 1
  7653 7647 7648 ar
  7654 7648 7649 ar
  7655 7648 7654 1
  7656 7649 7655 1
  7657 7650 7651 1
  7658 7651 7658 1
  7659 7651 7660 1
  7660 7651 7659 1
  7661 7661 7667 1
  7662 7661 7676 1
  7663 7662 7670 2
  7664 7663 7670 am   BACKBONE|DICT|INTERRES
  7665 7663 7664 1
  7666 7663 7677 1
  7667 7664 7669 ar
  7668 7664 7665 ar
  7669 7665 7672 1
  7670 7665 7666 ar
  7671 7666 7673 1
  7672 7666 7667 ar
  7673 7667 7668 ar
  7674 7668 7674 1
  7675 7668 7669 ar
  7676 7669 7675 1
  7677 7670 7671 1
  7678 7671 7678 1
  7679 7671 7680 1
  7680 7671 7679 1
  7681 7681 7696 1
  7682 7681 7687 1
  7683 7682 7690 2
  7684 7683 7697 1
  7685 7683 7690 am   BACKBONE|DICT|INTERRES
  7686 7683 7684 1
  7687 7684 7685 ar
  7688 7684 7689 ar
  7689 7685 7692 1
  7690 7685 7686 ar
  7691 7686 7687 ar
  7692 7686 7693 1
  7693 7687 7688 ar
  7694 7688 7689 ar
  7695 7688 7694 1
  7696 7689 7695 1
  7697 7690 7691 1
  7698 7691 7699 1
  7699 7691 7698 1
  7700 7691 7700 1
  7701 7701 7716 1
  7702 7701 7707 1
  7703 7702 7710 2
  7704 7703 7704 1
  7705 7703 7717 1
  7706 7703 7710 am   BACKBONE|DICT|INTERRES
  7707 7704 7705 ar
  7708 7704 7709 ar
  7709 7705 7706 ar
  7710 7705 7712 1
  7711 7706 7713 1
  7712 7706 7707 ar
  7713 7707 7708 ar
  7714 7708 7714 1
  7715 7708 7709 ar
  7716 7709 7715 1
  7717 7710 7711 1
  7718 7711 7719 1
  7719 7711 7718 1
  7720 7711 7720 1
  7721 7721 7736 1
  7722 7721 7727 1
  7723 7722 7730 2
  7724 7723 7724 1
  7725 7723 7737 1
  7726 7723 7730 am   BACKBONE|DICT|INTERRES
  7727 7724 7729 ar
  7728 7724 7725 ar
  7729 7725 7726 ar
  7730 7725 7732 1
  7731 7726 7727 ar
  7732 7726 7733 1
  7733 7727 7728 ar
  7734 7728 7729 ar
  7735 7728 7734 1
  7736 7729 7735 1
  7737 7730 7731 1
  7738 7731 7738 1
  7739 7731 7740 1
  7740 7731 7739 1
  7741 7741 7747 1
  7742 7741 7756 1
  7743 7742 7750 2
  7744 7743 7750 am   BACKBONE|DICT|INTERRES
  7745 7743 7744 1
  7746 7743 7757 1
  7747 7744 7749 ar
  7748 7744 7745 ar
  7749 7745 7752 1
  7750 7745 7746 ar
  7751 7746 7753 1
  7752 7746 7747 ar
  7753 7747 7748 ar
  7754 7748 7754 1
  7755 7748 7749 ar
  7756 7749 7755 1
  7757 7750 7751 1
  7758 7751 7758 1
  7759 7751 7760 1
  7760 7751 7759 1
  7761 7761 7776 1
  7762 7761 7767 1
  7763 7762 7770 2
  7764 7763 7777 1
  7765 7763 7770 am   BACKBONE|DICT|INTERRES
  7766 7763 7764 1
  7767 7764 7765 ar
  7768 7764 7769 ar
  7769 7765 7772 1
  7770 7765 7766 ar
  7771 7766 7767 ar
  7772 7766 7773 1
  7773 7767 7768 ar
  7774 7768 7769 ar
  7775 7768 7774 1
  7776 7769 7775 1
  7777 7770 7771 1
  7778 7771 7779 1
  7779 7771 7778 1
  7780 7771 7780 1
  7781 7781 7796 1
  7782 7781 7787 1
  7783 7782 7790 2
  7784 7783 7784 1
  7785 7783 7797 1
  7786 7783 7790 am   BACKBONE|DICT|INTERRES
  7787 7784 7785 ar
  7788 7784 7789 ar
  7789 7785 7786 ar
  7790 7785 7792 1
  7791 7786 7793 1
  7792 7786 7787 ar
  7793 7787 7788 ar
  7794 7788 7794 1
  7795 7788 7789 ar
  7796 7789 7795 1
  7797 7790 7791 1
  7798 7791 7799 1
  7799 7791 7798 1
  7800 7791 7800 1
  7801 7801 7816 1
  7802 7801 7807 1
  7803 7802 7810 2
  7804 7803 7804 1
  7805 7803 7817 1
  7806 7803 7810 am   BACKBONE|DICT|INTERRES
  7807 7804 7809 ar
  7808 7804 7805 ar
  7809 7805 7806 ar
  7810 7805 7812 1
  7811 7806 7807 ar
  7812 7806 7813 1
  7813 7807 7808 ar
  7814 7808 7809 ar
  7815 7808 7814 1
  7816 7809 7815 1
  7817 7810 7811 1
  7818 7811 7818 1
  7819 7811 7820 1
  7820 7811 7819 1
  7821 7821 7827 1
  7822 7821 7836 1
  7823 7822 7830 2
  7824 7823 7830 am   BACKBONE|DICT|INTERRES
  7825 7823 7824 1
  7826 7823 7837 1
  7827 7824 7829 ar
  7828 7824 7825 ar
  7829 7825 7832 1
  7830 7825 7826 ar
  7831 7826 7833 1
  7832 7826 7827 ar
  7833 7827 7828 ar
  7834 7828 7834 1
  7835 7828 7829 ar
  7836 7829 7835 1
  7837 7830 7831 1
  7838 7831 7838 1
  7839 7831 7840 1
  7840 7831 7839 1
  7841 7841 7856 1
  7842 7841 7847 1
  7843 7842 7850 2
  7844 7843 7857 1
  7845 7843 7850 am   BACKBONE|DICT|INTERRES
  7846 7843 7844 1
  7847 7844 7845 ar
  7848 7844 7849 ar
  7849 7845 7852 1
  7850 7845 7846 ar
  7851 7846 7847 ar
  7852 7846 7853 1
  7853 7847 7848 ar
  7854 7848 7849 ar
  7855 7848 7854 1
  7856 7849 7855 1
  7857 7850 7851 1
  7858 7851 7859 1
  7859 7851 7858 1
  7860 7851 7860 1
  7861 7861 7876 1
  7862 7861 7867 1
  7863 7862 7870 2
  7864 7863 7864 1
  7865 7863 7877 1
  7866 7863 7870 am   BACKBONE|DICT|INTERRES
  7867 7864 7865 ar
  7868 7864 7869 ar
  7869 7865 7866 ar
  7870 7865 7872 1
  7871 7866 7873 1
  7872 7866 7867 ar
  7873 7867 7868 ar
  7874 7868 7874 1
  7875 7868 7869 ar
  7876 7869 7875 1
  7877 7870 7871 1
  7878 7871 7879 1
  7879 7871 7878 1
  7880 7871 7880 1
  7881 7881 7896 1
  7882 7881 7887 1
  7883 7882 7890 2
  7884 7883 7884 1
  7885 7883 7897 1
  7886 7883 7890 am   BACKBONE|DICT|INTERRES
  7887 7884 7889 ar
  7888 7884 7885 ar
  7889 7885 7886 ar
  7890 7885 7892 1
  7891 7886 7887 ar
  7892 7886 7893 1
  7893 7887 7888 ar
  7894 7888 7889 ar
  7895 7888 7894 1
  7896 7889 7895 1
  7897 7890 7891 1
  7898 7891 7898 1
  7899 7891 7900 1
  7900 7891 7899 1
  7901 7901 7907 1
  7902 7901 7916 1
  7903 7902 7910 2
  7904 7903 7910 am   BACKBONE|DICT|INTERRES
  7905 7903 7904 1
  7906 7903 7917 1
  7907 7904 7909 ar
  7908 7904 7905 ar
  7909 7905 7912 1
  7910 7905 7906 ar
  7911 7906 7913 1
  7912 7906 7907 ar
  7913 7907 7908 ar
  7914 7908 7914 1
  7915 7908 7909 ar
  7916 7909 7915 1
  7917 7910 7911 1
  7918 7911 7918 1
  7919 7911 7920 1
  7920 7911 7919 1
  7921 7921 7936 1
  7922 7921 7927 1
  7923 7922 7930 2
  7924 7923 7937 1
  7925 7923 7930 am   BACKBONE|DICT|INTERRES
  7926 7923 7924 1
  7927 7924 7925 ar
  7928 7924 7929 ar
  7929 7925 7932 1
  7930 7925 7926 ar
  7931 7926 7927 ar
  7932 7926 7933 1
  7933 7927 7928 ar
  7934 7928 7929 ar
  7935 7928 7934 1
  7936 7929 7935 1
  7937 7930 7931 1
  7938 7931 7939 1
  7939 7931 7938 1
  7940 7931 7940 1
  7941 7941 7956 1
  7942 7941 7947 1
  7943 7942 7950 2
  7944 7943 7944 1
  7945 7943 7957 1
  7946 7943 7950 am   BACKBONE|DICT|INTERRES
  7947 7944 7945 ar
  7948 7944 7949 ar
  7949 7945 7946 ar
  7950 7945 7952 1
  7951 7946 7953 1
  7952 7946 7947 ar
  7953 7947 7948 ar
  7954 7948 7954 1
  7955 7948 7949 ar
  7956 7949 7955 1
  7957 7950 7951 1
  7958 7951 7959 1
  7959 7951 7958 1
  7960 7951 7960 1
  7961 7961 7976 1
  7962 7961 7967 1
  7963 7962 7970 2
  7964 7963 7964 1
  7965 7963 7977 1
  7966 7963 7970 am   BACKBONE|DICT|INTERRES
  7967 7964 7969 ar
  7968 7964 7965 ar
  7969 7965 7966 ar
  7970 7965 7972 1
  7971 7966 7967 ar
  7972 7966 7973 1
  7973 7967 7968 ar
  7974 7968 7969 ar
  7975 7968 7974 1
  7976 7969 7975 1
  7977 7970 7971 1
  7978 7971 7978 1
  7979 7971 7980 1
  7980 7971 7979 1
  7981 7981 7987 1
  7982 7981 7996 1
  7983 7982 7990 2
  7984 7983 7990 am   BACKBONE|DICT|INTERRES
  7985 7983 7984 1
  7986 7983 7997 1
  7987 7984 7989 ar
  7988 7984 7985 ar
  7989 7985 7992 1
  7990 7985 7986 ar
  7991 7986 7993 1
  7992 7986 7987 ar
  7993 7987 7988 ar
  7994 7988 7994 1
  7995 7988 7989 ar
  7996 7989 7995 1
  7997 7990 7991 1
  7998 7991 7998 1
  7999 7991 8000 1
  8000 7991 7999 1
  8001 8001 8016 1
  8002 8001 8007 1
  8003 8002 8010 2
  8004 8003 8017 1
  8005 8003 8010 am   BACKBONE|DICT|INTERRES
  8006 8003 8004 1
  8007 8004 8005 ar
  8008 8004 8009 ar
  8009 8005 8012 1
  8010 8005 8006 ar
  8011 8006 8007 ar
  8012 8006 8013 1
  8013 8007 8008 ar
  8014 8008 8009 ar
  8015 8008 8014 1
  8016 8009 8015 1
  8017 8010 8011 1
  8018 8011 8019 1
  8019 8011 8018 1
  8020 8011 8020 1
  8021 8021 8036 1
  8022 8021 8027 1
  8023 8022 8030 2
  8024 8023 8024 1
  8025 8023 8037 1
  8026 8023 8030 am   BACKBONE|DICT|INTERRES
  8027 8024 8025 ar
  8028 8024 8029 ar
  8029 8025 8026 ar
  8030 8025 8032 1
  8031 8026 8033 1
  8032 8026 8027 ar
  8033 8027 8028 ar
  8034 8028 8034 1
  8035 8028 8029 ar
  8036 8029 8035 1
  8037 8030 8031 1
  8038 8031 8039 1
  8039 8031 8038 1
  8040 8031 8040 1
  8041 8041 8056 1
  8042 8041 8047 1
  8043 8042 8050 2
  8044 8043 8044 1
  8045 8043 8057 1
  8046 8043 8050 am   BACKBONE|DICT|INTERRES
  8047 8044 8049 ar
  8048 8044 8045 ar
  8049 8045 8046 ar
  8050 8045 8052 1
  8051 8046 8047 ar
  8052 8046 8053 1
  8053 8047 8048 ar
  8054 8048 8049 ar
  8055 8048 8054 1
  8056 8049 8055 1
  8057 8050 8051 1
  8058 8051 8058 1
  8059 8051 8060 1
  8060 8051 8059 1
  8061 8061 8067 1
  8062 8061 8076 1
  8063 8062 8070 2
  8064 8063 8070 am   BACKBONE|DICT|INTERRES
  8065 8063 8064 1
  8066 8063 8077 1
  8067 8064 8069 ar
  8068 8064 8065 ar
  8069 8065 8072 1
  8070 8065 8066 ar
  8071 8066 8073 1
  8072 8066 8067 ar
  8073 8067 8068 ar
  8074 8068 8074 1
  8075 8068 8069 ar
  8076 8069 8075 1
  8077 8070 8071 1
  8078 8071 8078 1
  8079 8071 8080 1
  8080 8071 8079 1
  8081 8081 8096 1
  8082 8081 8087 1
  8083 8082 8090 2
  8084 8083 8097 1
  8085 8083 8090 am   BACKBONE|DICT|INTERRES
  8086 8083 8084 1
  8087 8084 8085 ar
  8088 8084 8089 ar
  8089 8085 8092 1
  8090 8085 8086 ar
  8091 8086 8087 ar
  8092 8086 8093 1
  8093 8087 8088 ar
  8094 8088 8089 ar
  8095 8088 8094 1
  8096 8089 8095 1
  8097 8090 8091 1
  8098 8091 8099 1
  8099 8091 8098 1
  8100 8091 8100 1
  8101 8101 8116 1
  8102 8101 8107 1
  8103 8102 8110 2
  8104 8103 8104 1
  8105 8103 8117 1
  8106 8103 8110 am   BACKBONE|DICT|INTERRES
  8107 8104 8105 ar
  8108 8104 8109 ar
  8109 8105 8106 ar
  8110 8105 8112 1
  8111 8106 8113 1
  8112 8106 8107 ar
  8113 8107 8108 ar
  8114 8108 8114 1
  8115 8108 8109 ar
  8116 8109 8115 1
  8117 8110 8111 1
  8118 8111 8119 1
  8119 8111 8118 1
  8120 8111 8120 1
  8121 8121 8136 1
  8122 8121 8127 1
  8123 8122 8130 2
  8124 8123 8124 1
  8125 8123 8137 1
  8126 8123 8130 am   BACKBONE|DICT|INTERRES
  8127 8124 8129 ar
  8128 8124 8125 ar
  8129 8125 8126 ar
  8130 8125 8132 1
  8131 8126 8127 ar
  8132 8126 8133 1
  8133 8127 8128 ar
  8134 8128 8129 ar
  8135 8128 8134 1
  8136 8129 8135 1
  8137 8130 8131 1
  8138 8131 8138 1
  8139 8131 8140 1
  8140 8131 8139 1
  8141 8141 8147 1
  8142 8141 8156 1
  8143 8142 8150 2
  8144 8143 8150 am   BACKBONE|DICT|INTERRES
  8145 8143 8144 1
  8146 8143 8157 1
  8147 8144 8149 ar
  8148 8144 8145 ar
  8149 8145 8152 1
  8150 8145 8146 ar
  8151 8146 8153 1
  8152 8146 8147 ar
  8153 8147 8148 ar
  8154 8148 8154 1
  8155 8148 8149 ar
  8156 8149 8155 1
  8157 8150 8151 1
  8158 8151 8158 1
  8159 8151 8160 1
  8160 8151 8159 1
  8161 8161 8176 1
  8162 8161 8167 1
  8163 8162 8170 2
  8164 8163 8177 1
  8165 8163 8170 am   BACKBONE|DICT|INTERRES
  8166 8163 8164 1
  8167 8164 8165 ar
  8168 8164 8169 ar
  8169 8165 8172 1
  8170 8165 8166 ar
  8171 8166 8167 ar
  8172 8166 8173 1
  8173 8167 8168 ar
  8174 8168 8169 ar
  8175 8168 8174 1
  8176 8169 8175 1
  8177 8170 8171 1
  8178 8171 8179 1
  8179 8171 8178 1
  8180 8171 8180 1
  8181 8181 8196 1
  8182 8181 8187 1
  8183 8182 8190 2
  8184 8183 8184 1
  8185 8183 8197 1
  8186 8183 8190 am   BACKBONE|DICT|INTERRES
  8187 8184 8185 ar
  8188 8184 8189 ar
  8189 8185 8186 ar
  8190 8185 8192 1
  8191 8186 8193 1
  8192 8186 8187 ar
  8193 8187 8188 ar
  8194 8188 8194 1
  8195 8188 8189 ar
  8196 8189 8195 1
  8197 8190 8191 1
  8198 8191 8199 1
  8199 8191 8198 1
  8200 8191 8200 1
  8201 8201 8216 1
  8202 8201 8207 1
  8203 8202 8210 2
  8204 8203 8204 1
  8205 8203 8217 1
  8206 8203 8210 am   BACKBONE|DICT|INTERRES
  8207 8204 8209 ar
  8208 8204 8205 ar
  8209 8205 8206 ar
  8210 8205 8212 1
  8211 8206 8207 ar
  8212 8206 8213 1
  8213 8207 8208 ar
  8214 8208 8209 ar
  8215 8208 8214 1
  8216 8209 8215 1
  8217 8210 8211 1
  8218 8211 8218 1
  8219 8211 8220 1
  8220 8211 8219 1
  8221 8221 8227 1
  8222 8221 8236 1
  8223 8222 8230 2
  8224 8223 8230 am   BACKBONE|DICT|INTERRES
  8225 8223 8224 1
  8226 8223 8237 1
  8227 8224 8229 ar
  8228 8224 8225 ar
  8229 8225 8232 1
  8230 8225 8226 ar
  8231 8226 8233 1
  8232 8226 8227 ar
  8233 8227 8228 ar
  8234 8228 8234 1
  8235 8228 8229 ar
  8236 8229 8235 1
  8237 8230 8231 1
  8238 8231 8238 1
  8239 8231 8240 1
  8240 8231 8239 1
  8241 8241 8256 1
  8242 8241 8247 1
  8243 8242 8250 2
  8244 8243 8257 1
  8245 8243 8250 am   BACKBONE|DICT|INTERRES
  8246 8243 8244 1
  8247 8244 8245 ar
  8248 8244 8249 ar
  8249 8245 8252 1
  8250 8245 8246 ar
  8251 8246 8247 ar
  8252 8246 8253 1
  8253 8247 8248 ar
  8254 8248 8249 ar
  8255 8248 8254 1
  8256 8249 8255 1
  8257 8250 8251 1
  8258 8251 8259 1
  8259 8251 8258 1
  8260 8251 8260 1
  8261 8261 8276 1
  8262 8261 8267 1
  8263 8262 8270 2
  8264 8263 8264 1
  8265 8263 8277 1
  8266 8263 8270 am   BACKBONE|DICT|INTERRES
  8267 8264 8265 ar
  8268 8264 8269 ar
  8269 8265 8266 ar
  8270 8265 8272 1
  8271 8266 8273 1
  8272 8266 8267 ar
  8273 8267 8268 ar
  8274 8268 8274 1
  8275 8268 8269 ar
  8276 8269 8275 1
  8277 8270 8271 1
  8278 8271 8279 1
  8279 8271 8278 1
  8280 8271 8280 1
  8281 8281 8296 1
  8282 8281 8287 1
  8283 8282 8290 2
  8284 8283 8284 1
  8285 8283 8297 1
  8286 8283 8290 am   BACKBONE|DICT|INTERRES
  8287 8284 8289 ar
  8288 8284 8285 ar
  8289 8285 8286 ar
  8290 8285 8292 1
  8291 8286 8287 ar
  8292 8286 8293 1
  8293 8287 8288 ar
  8294 8288 8289 ar
  8295 8288 8294 1
  8296 8289 8295 1
  8297 8290 8291 1
  8298 8291 8298 1
  8299 8291 8300 1
  8300 8291 8299 1
  8301 8301 8307 1
  8302 8301 8316 1
  8303 8302 8310 2
  8304 8303 8310 am   BACKBONE|DICT|INTERRES
  8305 8303 8304 1
  8306 8303 8317 1
  8307 8304 8309 ar
  8308 8304 8305 ar
  8309 8305 8312 1
  8310 8305 8306 ar
  8311 8306 8313 1
  8312 8306 8307 ar
  8313 8307 8308 ar
  8314 8308 8314 1
  8315 8308 8309 ar
  8316 8309 8315 1
  8317 8310 8311 1
  8318 8311 8318 1
  8319 8311 8320 1
  8320 8311 8319 1
  8321 8321 8336 1
  8322 8321 8327 1
  8323 8322 8330 2
  8324 8323 8337 1
  8325 8323 8330 am   BACKBONE|DICT|INTERRES
  8326 8323 8324 1
  8327 8324 8325 ar
  8328 8324 8329 ar
  8329 8325 8332 1
  8330 8325 8326 ar
  8331 8326 8327 ar
  8332 8326 8333 1
  8333 8327 8328 ar
  8334 8328 8329 ar
  8335 8328 8334 1
  8336 8329 8335 1
  8337 8330 8331 1
  8338 8331 8339 1
  8339 8331 8338 1
  8340 8331 8340 1
  8341 8341 8356 1
  8342 8341 8347 1
  8343 8342 8350 2
  8344 8343 8344 1
  8345 8343 8357 1
  8346 8343 8350 am   BACKBONE|DICT|INTERRES
  8347 8344 8345 ar
  8348 8344 8349 ar
  8349 8345 8346 ar
  8350 8345 8352 1
  8351 8346 8353 1
  8352 8346 8347 ar
  8353 8347 8348 ar
  8354 8348 8354 1
  8355 8348 8349 ar
  8356 8349 8355 1
  8357 8350 8351 1
  8358 8351 8359 1
  8359 8351 8358 1
  8360 8351 8360 1
  8361 8361 8376 1
  8362 8361 8367 1
  8363 8362 8370 2
  8364 8363 8364 1
  8365 8363 8377 1
  8366 8363 8370 am   BACKBONE|DICT|INTERRES
  8367 8364 8369 ar
  8368 8364 8365 ar
  8369 8365 8366 ar
  8370 8365 8372 1
  8371 8366 8367 ar
  8372 8366 8373 1
  8373 8367 8368 ar
  8374 8368 8369 ar
  8375 8368 8374 1
  8376 8369 8375 1
  8377 8370 8371 1
  8378 8371 8378 1
  8379 8371 8380 1
  8380 8371 8379 1
  8381 8381 8387 1
  8382 8381 8396 1
  8383 8382 8390 2
  8384 8383 8390 am   BACKBONE|DICT|INTERRES
  8385 8383 8384 1
  8386 8383 8397 1
  8387 8384 8389 ar
  8388 8384 8385 ar
  8389 8385 8392 1
  8390 8385 8386 ar
  8391 8386 8393 1
  8392 8386 8387 ar
  8393 8387 8388 ar
  8394 8388 8394 1
  8395 8388 8389 ar
  8396 8389 8395 1
  8397 8390 8391 1
  8398 8391 8398 1
  8399 8391 8400 1
  8400 8391 8399 1
  8401 8401 8416 1
  8402 8401 8407 1
  8403 8402 8410 2
  8404 8403 8417 1
  8405 8403 8410 am   BACKBONE|DICT|INTERRES
  8406 8403 8404 1
  8407 8404 8405 ar
  8408 8404 8409 ar
  8409 8405 8412 1
  8410 8405 8406 ar
  8411 8406 8407 ar
  8412 8406 8413 1
  8413 8407 8408 ar
  8414 8408 8409 ar
  8415 8408 8414 1
  8416 8409 8415 1
  8417 8410 8411 1
  8418 8411 8419 1
  8419 8411 8418 1
  8420 8411 8420 1
  8421 8421 8436 1
  8422 8421 8427 1
  8423 8422 8430 2
  8424 8423 8424 1
  8425 8423 8437 1
  8426 8423 8430 am   BACKBONE|DICT|INTERRES
  8427 8424 8425 ar
  8428 8424 8429 ar
  8429 8425 8426 ar
  8430 8425 8432 1
  8431 8426 8433 1
  8432 8426 8427 ar
  8433 8427 8428 ar
  8434 8428 8434 1
  8435 8428 8429 ar
  8436 8429 8435 1
  8437 8430 8431 1
  8438 8431 8439 1
  8439 8431 8438 1
  8440 8431 8440 1
  8441 8441 8456 1
  8442 8441 8447 1
  8443 8442 8450 2
  8444 8443 8444 1
  8445 8443 8457 1
  8446 8443 8450 am   BACKBONE|DICT|INTERRES
  8447 8444 8449 ar
  8448 8444 8445 ar
  8449 8445 8446 ar
  8450 8445 8452 1
  8451 8446 8447 ar
  8452 8446 8453 1
  8453 8447 8448 ar
  8454 8448 8449 ar
  8455 8448 8454 1
  8456 8449 8455 1
  8457 8450 8451 1
  8458 8451 8458 1
  8459 8451 8460 1
  8460 8451 8459 1
  8461 8461 8467 1
  8462 8461 8476 1
  8463 8462 8470 2
  8464 8463 8470 am   BACKBONE|DICT|INTERRES
  8465 8463 8464 1
  8466 8463 8477 1
  8467 8464 8469 ar
  8468 8464 8465 ar
  8469 8465 8472 1
  8470 8465 8466 ar
  8471 8466 8473 1
  8472 8466 8467 ar
  8473 8467 8468 ar
  8474 8468 8474 1
  8475 8468 8469 ar
  8476 8469 8475 1
  8477 8470 8471 1
  8478 8471 8478 1
  8479 8471 8480 1
  8480 8471 8479 1
  8481 8481 8496 1
  8482 8481 8487 1
  8483 8482 8490 2
  8484 8483 8497 1
  8485 8483 8490 am   BACKBONE|DICT|INTERRES
  8486 8483 8484 1
  8487 8484 8485 ar
  8488 8484 8489 ar
  8489 8485 8492 1
  8490 8485 8486 ar
  8491 8486 8487 ar
  8492 8486 8493 1
  8493 8487 8488 ar
  8494 8488 8489 ar
  8495 8488 8494 1
  8496 8489 8495 1
  8497 8490 8491 1
  8498 8491 8499 1
  8499 8491 8498 1
  8500 8491 8500 1
  8501 8501 8516 1
  8502 8501 8507 1
  8503 8502 8510 2
  8504 8503 8504 1
  8505 8503 8517 1
  8506 8503 8510 am   BACKBONE|DICT|INTERRES
  8507 8504 8505 ar
  8508 8504 8509 ar
  8509 8505 8506 ar
  8510 8505 8512 1
  8511 8506 8513 1
  8512 8506 8507 ar
  8513 8507 8508 ar
  8514 8508 8514 1
  8515 8508 8509 ar
  8516 8509 8515 1
  8517 8510 8511 1
  8518 8511 8519 1
  8519 8511 8518 1
  8520 8511 8520 1
  8521 8521 8536 1
  8522 8521 8527 1
  8523 8522 8530 2
  8524 8523 8524 1
  8525 8523 8537 1
  8526 8523 8530 am   BACKBONE|DICT|INTERRES
  8527 8524 8529 ar
  8528 8524 8525 ar
  8529 8525 8526 ar
  8530 8525 8532 1
  8531 8526 8527 ar
  8532 8526 8533 1
  8533 8527 8528 ar
  8534 8528 8529 ar
  8535 8528 8534 1
  8536 8529 8535 1
  8537 8530 8531 1
  8538 8531 8538 1
  8539 8531 8540 1
  8540 8531 8539 1
  8541 8541 8547 1
  8542 8541 8556 1
  8543 8542 8550 2
  8544 8543 8550 am   BACKBONE|DICT|INTERRES
  8545 8543 8544 1
  8546 8543 8557 1
  8547 8544 8549 ar
  8548 8544 8545 ar
  8549 8545 8552 1
  8550 8545 8546 ar
  8551 8546 8553 1
  8552 8546 8547 ar
  8553 8547 8548 ar
  8554 8548 8554 1
  8555 8548 8549 ar
  8556 8549 8555 1
  8557 8550 8551 1
  8558 8551 8558 1
  8559 8551 8560 1
  8560 8551 8559 1
  8561 8561 8576 1
  8562 8561 8567 1
  8563 8562 8570 2
  8564 8563 8577 1
  8565 8563 8570 am   BACKBONE|DICT|INTERRES
  8566 8563 8564 1
  8567 8564 8565 ar
  8568 8564 8569 ar
  8569 8565 8572 1
  8570 8565 8566 ar
  8571 8566 8567 ar
  8572 8566 8573 1
  8573 8567 8568 ar
  8574 8568 8569 ar
  8575 8568 8574 1
  8576 8569 8575 1
  8577 8570 8571 1
  8578 8571 8579 1
  8579 8571 8578 1
  8580 8571 8580 1
  8581 8581 8596 1
  8582 8581 8587 1
  8583 8582 8590 2
  8584 8583 8584 1
  8585 8583 8597 1
  8586 8583 8590 am   BACKBONE|DICT|INTERRES
  8587 8584 8585 ar
  8588 8584 8589 ar
  8589 8585 8586 ar
  8590 8585 8592 1
  8591 8586 8593 1
  8592 8586 8587 ar
  8593 8587 8588 ar
  8594 8588 8594 1
  8595 8588 8589 ar
  8596 8589 8595 1
  8597 8590 8591 1
  8598 8591 8599 1
  8599 8591 8598 1
  8600 8591 8600 1
  8601 8601 8616 1
  8602 8601 8607 1
  8603 8602 8610 2
  8604 8603 8604 1
  8605 8603 8617 1
  8606 8603 8610 am   BACKBONE|DICT|INTERRES
  8607 8604 8609 ar
  8608 8604 8605 ar
  8609 8605 8606 ar
  8610 8605 8612 1
  8611 8606 8607 ar
  8612 8606 8613 1
  8613 8607 8608 ar
  8614 8608 8609 ar
  8615 8608 8614 1
  8616 8609 8615 1
  8617 8610 8611 1
  8618 8611 8618 1
  8619 8611 8620 1
  8620 8611 8619 1
  8621 8621 8627 1
  8622 8621 8636 1
  8623 8622 8630 2
  8624 8623 8630 am   BACKBONE|DICT|INTERRES
  8625 8623 8624 1
  8626 8623 8637 1
  8627 8624 8629 ar
  8628 8624 8625 ar
  8629 8625 8632 1
  8630 8625 8626 ar
  8631 8626 8633 1
  8632 8626 8627 ar
  8633 8627 8628 ar
  8634 8628 8634 1
  8635 8628 8629 ar
  8636 8629 8635 1
  8637 8630 8631 1
  8638 8631 8638 1
  8639 8631 8640 1
  8640 8631 8639 1
@<TRIPOS>SUBSTRUCTURE
     1 UNK         1 GROUP             0       ****    0 ROOT
