@<TRIPOS>MOLECULE
substrate-0_1_1
24000   24000    1
SMALL
USER_CHARGES


@<TRIPOS>ATOM
      1 O(1)        7.0672   12.6340    6.2473 O.3       1 UNK         0.0000 
      2 O(2)        5.0694   11.3940   12.2913 O.2       1 UNK         0.0000 
      3 N(1)        7.2505   11.3433   11.6604 N.am      1 UNK         0.0000 
      4 C(1)        7.1511   11.7022   10.2975 C.ar      1 UNK         0.0000 
      5 C(2)        6.0689   12.3881    9.7463 C.ar      1 UNK         0.0000 
      6 C(3)        6.0619   12.6969    8.3892 C.ar      1 UNK         0.0000 
      7 C(4)        7.1319   12.3342    7.5752 C.ar      1 UNK         0.0000 
      8 C(5)        8.2275   11.6758    8.1323 C.ar      1 UNK         0.0000 
      9 C(6)        8.2328   11.3630    9.4841 C.ar      1 UNK         0.0000 
     10 C(7)        6.2598   11.1905   12.5539 C.2       1 UNK         0.0000 
     11 C(8)        6.7006   10.7579   13.9266 C.3       1 UNK         0.0000 
     12 H(1)        5.2284   12.6738   10.3666 H         1 UNK         0.0000 
     13 H(2)        5.2111   13.2268    7.9789 H         1 UNK         0.0000 
     14 H(3)        9.0707   11.4057    7.5086 H         1 UNK         0.0000 
     15 H(4)        9.0834   10.8499    9.9156 H         1 UNK         0.0000 
     16 H(5)        7.9406   12.5735    5.8415 H         1 UNK         0.0000 
     17 H(6)        8.1765   11.0986   11.9779 H         1 UNK         0.0000 
     18 H(7)        6.6223   11.5823   14.5866 H         1 UNK         0.0000 
     19 H(8)        7.6974   10.4007   13.9469 H         1 UNK         0.0000 
     20 H(9)        6.0201   10.0347   14.2946 H         1 UNK         0.0000 
     21 O(1)       11.4207    1.3125    9.4321 O.3       1 UNK         0.0000 
     22 O(2)       13.4185    7.4813    9.5479 O.2       1 UNK         0.0000 
     23 N(1)       11.2374    6.8769    9.3602 N.am      1 UNK         0.0000 
     24 C(1)       11.3368    5.4685    9.4114 C.ar      1 UNK         0.0000 
     25 C(2)       12.4190    4.7803    9.9597 C.ar      1 UNK         0.0000 
     26 C(3)       12.4260    3.3885    9.9633 C.ar      1 UNK         0.0000 
     27 C(4)       11.3560    2.6738    9.4309 C.ar      1 UNK         0.0000 
     28 C(5)       10.2604    3.3618    8.9107 C.ar      1 UNK         0.0000 
     29 C(6)       10.2551    4.7493    8.9020 C.ar      1 UNK         0.0000 
     30 C(7)       12.2281    7.7822    9.4070 C.2       1 UNK         0.0000 
     31 C(8)       11.7873    9.2163    9.2860 C.3       1 UNK         0.0000 
     32 H(1)       13.2595    5.3228   10.3744 H         1 UNK         0.0000 
     33 H(2)       13.2768    2.8720   10.3903 H         1 UNK         0.0000 
     34 H(3)        9.4172    2.8125    8.5104 H         1 UNK         0.0000 
     35 H(4)        9.4044    5.2828    8.4961 H         1 UNK         0.0000 
     36 H(5)       10.5473    0.9299    9.2841 H         1 UNK         0.0000 
     37 H(6)       10.3114    7.2404    9.1910 H         1 UNK         0.0000 
     38 H(7)       11.8655    9.6795   10.2352 H         1 UNK         0.0000 
     39 H(8)       10.7905    9.3145    8.9420 H         1 UNK         0.0000 
     40 H(9)       12.4678    9.7340    8.6612 H         1 UNK         0.0000 
     41 O(1)        1.6006   13.5102   15.5017 O.3       1 UNK         0.0000 
     42 O(2)        3.5984   14.7503    9.4577 O.2       1 UNK         0.0000 
     43 N(1)        1.4173   14.8009   10.0886 N.am      1 UNK         0.0000 
     44 C(1)        1.5167   14.4420   11.4515 C.ar      1 UNK         0.0000 
     45 C(2)        2.5989   13.7561   12.0027 C.ar      1 UNK         0.0000 
     46 C(3)        2.6059   13.4474   13.3599 C.ar      1 UNK         0.0000 
     47 C(4)        1.5359   13.8100   14.1738 C.ar      1 UNK         0.0000 
     48 C(5)        0.4403   14.4684   13.6167 C.ar      1 UNK         0.0000 
     49 C(6)        0.4350   14.7813   12.2649 C.ar      1 UNK         0.0000 
     50 C(7)        2.4080   14.9538    9.1951 C.2       1 UNK         0.0000 
     51 C(8)        1.9672   15.3864    7.8224 C.3       1 UNK         0.0000 
     52 H(1)        3.4394   13.4705   11.3824 H         1 UNK         0.0000 
     53 H(2)        3.4567   12.9175   13.7701 H         1 UNK         0.0000 
     54 H(3)       -0.4029   14.7385   14.2404 H         1 UNK         0.0000 
     55 H(4)       -0.4157   15.2944   11.8334 H         1 UNK         0.0000 
     56 H(5)        0.7271   13.5707   15.9075 H         1 UNK         0.0000 
     57 H(6)        0.4913   15.0457    9.7711 H         1 UNK         0.0000 
     58 H(7)        2.0454   14.5620    7.1624 H         1 UNK         0.0000 
     59 H(8)        0.9704   15.7436    7.8021 H         1 UNK         0.0000 
     60 H(9)        2.6477   16.1095    7.4544 H         1 UNK         0.0000 
     61 O(1)        2.7333   10.1494   12.3169 O.3       1 UNK         0.0000 
     62 O(2)        0.7355    3.9806   12.2011 O.2       1 UNK         0.0000 
     63 N(1)        2.9166    4.5850   12.3888 N.am      1 UNK         0.0000 
     64 C(1)        2.8172    5.9935   12.3376 C.ar      1 UNK         0.0000 
     65 C(2)        1.7350    6.6817   11.7893 C.ar      1 UNK         0.0000 
     66 C(3)        1.7280    8.0735   11.7858 C.ar      1 UNK         0.0000 
     67 C(4)        2.7980    8.7881   12.3181 C.ar      1 UNK         0.0000 
     68 C(5)        3.8936    8.1002   12.8383 C.ar      1 UNK         0.0000 
     69 C(6)        3.8989    6.7126   12.8470 C.ar      1 UNK         0.0000 
     70 C(7)        1.9259    3.6797   12.3420 C.2       1 UNK         0.0000 
     71 C(8)        2.3667    2.2456   12.4630 C.3       1 UNK         0.0000 
     72 H(1)        0.8945    6.1391   11.3746 H         1 UNK         0.0000 
     73 H(2)        0.8772    8.5900   11.3587 H         1 UNK         0.0000 
     74 H(3)        4.7368    8.6494   13.2386 H         1 UNK         0.0000 
     75 H(4)        4.7496    6.1791   13.2530 H         1 UNK         0.0000 
     76 H(5)        3.6067   10.5320   12.4649 H         1 UNK         0.0000 
     77 H(6)        3.8426    4.2215   12.5580 H         1 UNK         0.0000 
     78 H(7)        2.2885    1.7825   11.5138 H         1 UNK         0.0000 
     79 H(8)        3.3635    2.1474   12.8070 H         1 UNK         0.0000 
     80 H(9)        1.6862    1.7279   13.0878 H         1 UNK         0.0000 
     81 O(1)        7.0672   18.3650   13.4097 O.3       1 UNK         0.0000 
     82 O(2)        5.0694   17.1249   19.4537 O.2       1 UNK         0.0000 
     83 N(1)        7.2505   17.0743   18.8228 N.am      1 UNK         0.0000 
     84 C(1)        7.1511   17.4332   17.4599 C.ar      1 UNK         0.0000 
     85 C(2)        6.0689   18.1191   16.9087 C.ar      1 UNK         0.0000 
     86 C(3)        6.0619   18.4278   15.5516 C.ar      1 UNK         0.0000 
     87 C(4)        7.1319   18.0652   14.7376 C.ar      1 UNK         0.0000 
     88 C(5)        8.2275   17.4068   15.2947 C.ar      1 UNK         0.0000 
     89 C(6)        8.2328   17.0939   16.6465 C.ar      1 UNK         0.0000 
     90 C(7)        6.2598   16.9215   19.7163 C.2       1 UNK         0.0000 
     91 C(8)        6.7006   16.4888   21.0890 C.3       1 UNK         0.0000 
     92 H(1)        5.2284   18.4047   17.5290 H         1 UNK         0.0000 
     93 H(2)        5.2111   18.9577   15.1413 H         1 UNK         0.0000 
     94 H(3)        9.0707   17.1367   14.6710 H         1 UNK         0.0000 
     95 H(4)        9.0834   16.5809   17.0780 H         1 UNK         0.0000 
     96 H(5)        7.9406   18.3045   13.0039 H         1 UNK         0.0000 
     97 H(6)        8.1765   16.8295   19.1403 H         1 UNK         0.0000 
     98 H(7)        6.6223   17.3133   21.7490 H         1 UNK         0.0000 
     99 H(8)        7.6974   16.1317   21.1093 H         1 UNK         0.0000 
    100 H(9)        6.0201   15.7657   21.4570 H         1 UNK         0.0000 
    101 O(1)       11.4207    7.0435   16.5945 O.3       1 UNK         0.0000 
    102 O(2)       13.4185   13.2123   16.7103 O.2       1 UNK         0.0000 
    103 N(1)       11.2374   12.6079   16.5226 N.am      1 UNK         0.0000 
    104 C(1)       11.3368   11.1994   16.5738 C.ar      1 UNK         0.0000 
    105 C(2)       12.4190   10.5112   17.1221 C.ar      1 UNK         0.0000 
    106 C(3)       12.4260    9.1194   17.1257 C.ar      1 UNK         0.0000 
    107 C(4)       11.3560    8.4048   16.5933 C.ar      1 UNK         0.0000 
    108 C(5)       10.2604    9.0927   16.0731 C.ar      1 UNK         0.0000 
    109 C(6)       10.2551   10.4803   16.0644 C.ar      1 UNK         0.0000 
    110 C(7)       12.2281   13.5132   16.5694 C.2       1 UNK         0.0000 
    111 C(8)       11.7873   14.9473   16.4484 C.3       1 UNK         0.0000 
    112 H(1)       13.2595   11.0538   17.5368 H         1 UNK         0.0000 
    113 H(2)       13.2768    8.6029   17.5527 H         1 UNK         0.0000 
    114 H(3)        9.4172    8.5435   15.6728 H         1 UNK         0.0000 
    115 H(4)        9.4044   11.0138   15.6585 H         1 UNK         0.0000 
    116 H(5)       10.5473    6.6609   16.4465 H         1 UNK         0.0000 
    117 H(6)       10.3114   12.9713   16.3534 H         1 UNK         0.0000 
    118 H(7)       11.8655   15.4104   17.3976 H         1 UNK         0.0000 
    119 H(8)       10.7905   15.0455   16.1044 H         1 UNK         0.0000 
    120 H(9)       12.4678   15.4650   15.8236 H         1 UNK         0.0000 
    121 O(1)        7.0868    4.5589   22.6641 O.3       1 UNK         0.0000 
    122 O(2)        9.0846    5.7989   16.6201 O.2       1 UNK         0.0000 
    123 N(1)        6.9035    5.8496   17.2510 N.am      1 UNK         0.0000 
    124 C(1)        7.0029    5.4907   18.6139 C.ar      1 UNK         0.0000 
    125 C(2)        8.0851    4.8048   19.1651 C.ar      1 UNK         0.0000 
    126 C(3)        8.0921    4.4960   20.5223 C.ar      1 UNK         0.0000 
    127 C(4)        7.0221    4.8587   21.3362 C.ar      1 UNK         0.0000 
    128 C(5)        5.9265    5.5171   20.7791 C.ar      1 UNK         0.0000 
    129 C(6)        5.9212    5.8299   19.4273 C.ar      1 UNK         0.0000 
    130 C(7)        7.8942    6.0024   16.3575 C.2       1 UNK         0.0000 
    131 C(8)        7.4534    6.4350   14.9848 C.3       1 UNK         0.0000 
    132 H(1)        8.9256    4.5191   18.5448 H         1 UNK         0.0000 
    133 H(2)        8.9429    3.9661   20.9325 H         1 UNK         0.0000 
    134 H(3)        5.0833    5.7872   21.4028 H         1 UNK         0.0000 
    135 H(4)        5.0706    6.3430   18.9958 H         1 UNK         0.0000 
    136 H(5)        6.2134    4.6194   23.0699 H         1 UNK         0.0000 
    137 H(6)        5.9775    6.0943   16.9335 H         1 UNK         0.0000 
    138 H(7)        7.5317    5.6106   14.3248 H         1 UNK         0.0000 
    139 H(8)        6.4566    6.7922   14.9645 H         1 UNK         0.0000 
    140 H(9)        8.1339    7.1582   14.6168 H         1 UNK         0.0000 
    141 O(1)        9.8103   15.8804   19.4793 O.3       1 UNK         0.0000 
    142 O(2)        7.8125    9.7116   19.3635 O.2       1 UNK         0.0000 
    143 N(1)        9.9936   10.3160   19.5512 N.am      1 UNK         0.0000 
    144 C(1)        9.8942   11.7244   19.5000 C.ar      1 UNK         0.0000 
    145 C(2)        8.8120   12.4126   18.9517 C.ar      1 UNK         0.0000 
    146 C(3)        8.8050   13.8044   18.9482 C.ar      1 UNK         0.0000 
    147 C(4)        9.8750   14.5191   19.4805 C.ar      1 UNK         0.0000 
    148 C(5)       10.9706   13.8311   20.0007 C.ar      1 UNK         0.0000 
    149 C(6)       10.9759   12.4436   20.0094 C.ar      1 UNK         0.0000 
    150 C(7)        9.0029    9.4107   19.5044 C.2       1 UNK         0.0000 
    151 C(8)        9.4437    7.9766   19.6254 C.3       1 UNK         0.0000 
    152 H(1)        7.9715   11.8701   18.5370 H         1 UNK         0.0000 
    153 H(2)        7.9542   14.3209   18.5211 H         1 UNK         0.0000 
    154 H(3)       11.8138   14.3804   20.4010 H         1 UNK         0.0000 
    155 H(4)       11.8266   11.9101   20.4154 H         1 UNK         0.0000 
    156 H(5)       10.6837   16.2630   19.6273 H         1 UNK         0.0000 
    157 H(6)       10.9196    9.9525   19.7204 H         1 UNK         0.0000 
    158 H(7)        9.3655    7.5134   18.6762 H         1 UNK         0.0000 
    159 H(8)       10.4405    7.8784   19.9694 H         1 UNK         0.0000 
    160 H(9)        8.7632    7.4589   20.2502 H         1 UNK         0.0000 
    161 O(1)        5.4764    9.4136   20.5721 O.3       1 UNK         0.0000 
    162 O(2)        3.4786    8.1736   26.6161 O.2       1 UNK         0.0000 
    163 N(1)        5.6597    8.1229   25.9852 N.am      1 UNK         0.0000 
    164 C(1)        5.5603    8.4818   24.6223 C.ar      1 UNK         0.0000 
    165 C(2)        4.4781    9.1677   24.0711 C.ar      1 UNK         0.0000 
    166 C(3)        4.4711    9.4765   22.7140 C.ar      1 UNK         0.0000 
    167 C(4)        5.5411    9.1138   21.9000 C.ar      1 UNK         0.0000 
    168 C(5)        6.6367    8.4554   22.4571 C.ar      1 UNK         0.0000 
    169 C(6)        6.6420    8.1426   23.8089 C.ar      1 UNK         0.0000 
    170 C(7)        4.6690    7.9701   26.8787 C.2       1 UNK         0.0000 
    171 C(8)        5.1098    7.5375   28.2514 C.3       1 UNK         0.0000 
    172 H(1)        3.6376    9.4534   24.6914 H         1 UNK         0.0000 
    173 H(2)        3.6203   10.0064   22.3037 H         1 UNK         0.0000 
    174 H(3)        7.4799    8.1853   21.8334 H         1 UNK         0.0000 
    175 H(4)        7.4927    7.6295   24.2404 H         1 UNK         0.0000 
    176 H(5)        6.3499    9.3531   20.1663 H         1 UNK         0.0000 
    177 H(6)        6.5857    7.8782   26.3027 H         1 UNK         0.0000 
    178 H(7)        5.0316    8.3619   28.9114 H         1 UNK         0.0000 
    179 H(8)        6.1066    7.1803   28.2717 H         1 UNK         0.0000 
    180 H(9)        4.4293    6.8143   28.6194 H         1 UNK         0.0000 
    181 O(1)        4.3437   12.7745   23.7569 O.3       1 UNK         0.0000 
    182 O(2)        6.3415   18.9433   23.8727 O.2       1 UNK         0.0000 
    183 N(1)        4.1604   18.3389   23.6850 N.am      1 UNK         0.0000 
    184 C(1)        4.2598   16.9304   23.7362 C.ar      1 UNK         0.0000 
    185 C(2)        5.3420   16.2422   24.2845 C.ar      1 UNK         0.0000 
    186 C(3)        5.3490   14.8504   24.2881 C.ar      1 UNK         0.0000 
    187 C(4)        4.2790   14.1358   23.7557 C.ar      1 UNK         0.0000 
    188 C(5)        3.1834   14.8237   23.2355 C.ar      1 UNK         0.0000 
    189 C(6)        3.1781   16.2112   23.2268 C.ar      1 UNK         0.0000 
    190 C(7)        5.1511   19.2442   23.7318 C.2       1 UNK         0.0000 
    191 C(8)        4.7103   20.6783   23.6108 C.3       1 UNK         0.0000 
    192 H(1)        6.1825   16.7847   24.6992 H         1 UNK         0.0000 
    193 H(2)        6.1998   14.3339   24.7151 H         1 UNK         0.0000 
    194 H(3)        2.3402   14.2744   22.8352 H         1 UNK         0.0000 
    195 H(4)        2.3274   16.7448   22.8209 H         1 UNK         0.0000 
    196 H(5)        3.4703   12.3919   23.6089 H         1 UNK         0.0000 
    197 H(6)        3.2344   18.7023   23.5158 H         1 UNK         0.0000 
    198 H(7)        4.7885   21.1414   24.5600 H         1 UNK         0.0000 
    199 H(8)        3.7135   20.7764   23.2668 H         1 UNK         0.0000 
    200 H(9)        5.3908   21.1960   22.9860 H         1 UNK         0.0000 
    201 O(1)        8.6776    7.7793    8.3393 O.3       1 UNK         0.0000 
    202 O(2)       10.6754    9.0193    2.2953 O.2       1 UNK         0.0000 
    203 N(1)        8.4943    9.0700    2.9262 N.am      1 UNK         0.0000 
    204 C(1)        8.5937    8.7111    4.2891 C.ar      1 UNK         0.0000 
    205 C(2)        9.6759    8.0252    4.8403 C.ar      1 UNK         0.0000 
    206 C(3)        9.6829    7.7164    6.1975 C.ar      1 UNK         0.0000 
    207 C(4)        8.6129    8.0791    7.0114 C.ar      1 UNK         0.0000 
    208 C(5)        7.5173    8.7375    6.4543 C.ar      1 UNK         0.0000 
    209 C(6)        7.5120    9.0503    5.1025 C.ar      1 UNK         0.0000 
    210 C(7)        9.4850    9.2228    2.0327 C.2       1 UNK         0.0000 
    211 C(8)        9.0442    9.6554    0.6600 C.3       1 UNK         0.0000 
    212 H(1)       10.5164    7.7395    4.2200 H         1 UNK         0.0000 
    213 H(2)       10.5337    7.1865    6.6077 H         1 UNK         0.0000 
    214 H(3)        6.6741    9.0076    7.0780 H         1 UNK         0.0000 
    215 H(4)        6.6613    9.5634    4.6710 H         1 UNK         0.0000 
    216 H(5)        7.8041    7.8398    8.7451 H         1 UNK         0.0000 
    217 H(6)        7.5683    9.3147    2.6087 H         1 UNK         0.0000 
    218 H(7)        9.1224    8.8310    0.0000 H         1 UNK         0.0000 
    219 H(8)        8.0474   10.0126    0.6397 H         1 UNK         0.0000 
    220 H(9)        9.7247   10.3786    0.2920 H         1 UNK         0.0000 
    221 O(1)       11.4011   19.1008    5.1545 O.3       1 UNK         0.0000 
    222 O(2)        9.4033   12.9320    5.0387 O.2       1 UNK         0.0000 
    223 N(1)       11.5844   13.5364    5.2264 N.am      1 UNK         0.0000 
    224 C(1)       11.4850   14.9448    5.1752 C.ar      1 UNK         0.0000 
    225 C(2)       10.4028   15.6330    4.6269 C.ar      1 UNK         0.0000 
    226 C(3)       10.3958   17.0248    4.6234 C.ar      1 UNK         0.0000 
    227 C(4)       11.4658   17.7395    5.1557 C.ar      1 UNK         0.0000 
    228 C(5)       12.5614   17.0515    5.6759 C.ar      1 UNK         0.0000 
    229 C(6)       12.5667   15.6640    5.6846 C.ar      1 UNK         0.0000 
    230 C(7)       10.5936   12.6311    5.1796 C.2       1 UNK         0.0000 
    231 C(8)       11.0345   11.1969    5.3006 C.3       1 UNK         0.0000 
    232 H(1)        9.5623   15.0905    4.2122 H         1 UNK         0.0000 
    233 H(2)        9.5450   17.5413    4.1963 H         1 UNK         0.0000 
    234 H(3)       13.4046   17.6008    6.0762 H         1 UNK         0.0000 
    235 H(4)       13.4173   15.1305    6.0906 H         1 UNK         0.0000 
    236 H(5)       12.2745   19.4834    5.3025 H         1 UNK         0.0000 
    237 H(6)       12.5104   13.1729    5.3956 H         1 UNK         0.0000 
    238 H(7)       10.9562   10.7338    4.3514 H         1 UNK         0.0000 
    239 H(8)       12.0313   11.0988    5.6446 H         1 UNK         0.0000 
    240 H(9)       10.3540   10.6793    5.9254 H         1 UNK         0.0000 
    241 O(1)        8.6580   27.3164    6.2473 O.3       1 UNK         0.0000 
    242 O(2)        6.6602   26.0763   12.2913 O.2       1 UNK         0.0000 
    243 N(1)        8.8413   26.0256   11.6604 N.am      1 UNK         0.0000 
    244 C(1)        8.7419   26.3846   10.2975 C.ar      1 UNK         0.0000 
    245 C(2)        7.6597   27.0704    9.7463 C.ar      1 UNK         0.0000 
    246 C(3)        7.6527   27.3792    8.3892 C.ar      1 UNK         0.0000 
    247 C(4)        8.7227   27.0165    7.5752 C.ar      1 UNK         0.0000 
    248 C(5)        9.8183   26.3582    8.1323 C.ar      1 UNK         0.0000 
    249 C(6)        9.8236   26.0453    9.4841 C.ar      1 UNK         0.0000 
    250 C(7)        7.8505   25.8728   12.5539 C.2       1 UNK         0.0000 
    251 C(8)        8.2914   25.4402   13.9266 C.3       1 UNK         0.0000 
    252 H(1)        6.8192   27.3561   10.3666 H         1 UNK         0.0000 
    253 H(2)        6.8019   27.9091    7.9789 H         1 UNK         0.0000 
    254 H(3)       10.6615   26.0881    7.5086 H         1 UNK         0.0000 
    255 H(4)       10.6742   25.5322    9.9156 H         1 UNK         0.0000 
    256 H(5)        9.5314   27.2558    5.8415 H         1 UNK         0.0000 
    257 H(6)        9.7673   25.7809   11.9779 H         1 UNK         0.0000 
    258 H(7)        8.2131   26.2646   14.5866 H         1 UNK         0.0000 
    259 H(8)        9.2882   25.0830   13.9469 H         1 UNK         0.0000 
    260 H(9)        7.6109   24.7171   14.2946 H         1 UNK         0.0000 
    261 O(1)       13.0115   15.9949    9.4321 O.3       1 UNK         0.0000 
    262 O(2)       15.0093   22.1637    9.5479 O.2       1 UNK         0.0000 
    263 N(1)       12.8281   21.5592    9.3602 N.am      1 UNK         0.0000 
    264 C(1)       12.9276   20.1508    9.4114 C.ar      1 UNK         0.0000 
    265 C(2)       14.0098   19.4626    9.9597 C.ar      1 UNK         0.0000 
    266 C(3)       14.0168   18.0708    9.9633 C.ar      1 UNK         0.0000 
    267 C(4)       12.9468   17.3562    9.4309 C.ar      1 UNK         0.0000 
    268 C(5)       11.8512   18.0441    8.9107 C.ar      1 UNK         0.0000 
    269 C(6)       11.8458   19.4316    8.9020 C.ar      1 UNK         0.0000 
    270 C(7)       13.8189   22.4646    9.4070 C.2       1 UNK         0.0000 
    271 C(8)       13.3781   23.8987    9.2860 C.3       1 UNK         0.0000 
    272 H(1)       14.8503   20.0051   10.3744 H         1 UNK         0.0000 
    273 H(2)       14.8676   17.5543   10.3903 H         1 UNK         0.0000 
    274 H(3)       11.0080   17.4948    8.5104 H         1 UNK         0.0000 
    275 H(4)       10.9952   19.9652    8.4961 H         1 UNK         0.0000 
    276 H(5)       12.1380   15.6123    9.2841 H         1 UNK         0.0000 
    277 H(6)       11.9022   21.9227    9.1910 H         1 UNK         0.0000 
    278 H(7)       13.4563   24.3618   10.2352 H         1 UNK         0.0000 
    279 H(8)       12.3813   23.9968    8.9420 H         1 UNK         0.0000 
    280 H(9)       14.0585   24.4164    8.6612 H         1 UNK         0.0000 
    281 O(1)        3.1914   28.1926   15.5017 O.3       1 UNK         0.0000 
    282 O(2)        5.1892   29.4326    9.4577 O.2       1 UNK         0.0000 
    283 N(1)        3.0080   29.4833   10.0886 N.am      1 UNK         0.0000 
    284 C(1)        3.1075   29.1244   11.4515 C.ar      1 UNK         0.0000 
    285 C(2)        4.1896   28.4385   12.0027 C.ar      1 UNK         0.0000 
    286 C(3)        4.1967   28.1297   13.3599 C.ar      1 UNK         0.0000 
    287 C(4)        3.1267   28.4924   14.1738 C.ar      1 UNK         0.0000 
    288 C(5)        2.0310   29.1508   13.6167 C.ar      1 UNK         0.0000 
    289 C(6)        2.0257   29.4636   12.2649 C.ar      1 UNK         0.0000 
    290 C(7)        3.9988   29.6361    9.1951 C.2       1 UNK         0.0000 
    291 C(8)        3.5580   30.0687    7.8224 C.3       1 UNK         0.0000 
    292 H(1)        5.0302   28.1528   11.3824 H         1 UNK         0.0000 
    293 H(2)        5.0475   27.5998   13.7701 H         1 UNK         0.0000 
    294 H(3)        1.1879   29.4209   14.2404 H         1 UNK         0.0000 
    295 H(4)        1.1751   29.9767   11.8334 H         1 UNK         0.0000 
    296 H(5)        2.3179   28.2531   15.9075 H         1 UNK         0.0000 
    297 H(6)        2.0821   29.7280    9.7711 H         1 UNK         0.0000 
    298 H(7)        3.6362   29.2443    7.1624 H         1 UNK         0.0000 
    299 H(8)        2.5612   30.4259    7.8021 H         1 UNK         0.0000 
    300 H(9)        4.2384   30.7919    7.4544 H         1 UNK         0.0000 
    301 O(1)        4.3241   24.8317   12.3169 O.3       1 UNK         0.0000 
    302 O(2)        2.3263   18.6629   12.2011 O.2       1 UNK         0.0000 
    303 N(1)        4.5074   19.2673   12.3888 N.am      1 UNK         0.0000 
    304 C(1)        4.4080   20.6758   12.3376 C.ar      1 UNK         0.0000 
    305 C(2)        3.3258   21.3640   11.7893 C.ar      1 UNK         0.0000 
    306 C(3)        3.3188   22.7558   11.7858 C.ar      1 UNK         0.0000 
    307 C(4)        4.3888   23.4704   12.3181 C.ar      1 UNK         0.0000 
    308 C(5)        5.4844   22.7825   12.8383 C.ar      1 UNK         0.0000 
    309 C(6)        5.4897   21.3950   12.8470 C.ar      1 UNK         0.0000 
    310 C(7)        3.5166   18.3620   12.3420 C.2       1 UNK         0.0000 
    311 C(8)        3.9575   16.9279   12.4630 C.3       1 UNK         0.0000 
    312 H(1)        2.4853   20.8215   11.3746 H         1 UNK         0.0000 
    313 H(2)        2.4680   23.2723   11.3587 H         1 UNK         0.0000 
    314 H(3)        6.3276   23.3317   13.2386 H         1 UNK         0.0000 
    315 H(4)        6.3403   20.8614   13.2530 H         1 UNK         0.0000 
    316 H(5)        5.1975   25.2143   12.4649 H         1 UNK         0.0000 
    317 H(6)        5.4334   18.9039   12.5580 H         1 UNK         0.0000 
    318 H(7)        3.8792   16.4648   11.5138 H         1 UNK         0.0000 
    319 H(8)        4.9543   16.8298   12.8070 H         1 UNK         0.0000 
    320 H(9)        3.2770   16.4102   13.0878 H         1 UNK         0.0000 
    321 O(1)        8.6580   33.0473   13.4097 O.3       1 UNK         0.0000 
    322 O(2)        6.6602   31.8072   19.4537 O.2       1 UNK         0.0000 
    323 N(1)        8.8413   31.7566   18.8228 N.am      1 UNK         0.0000 
    324 C(1)        8.7419   32.1155   17.4599 C.ar      1 UNK         0.0000 
    325 C(2)        7.6597   32.8014   16.9087 C.ar      1 UNK         0.0000 
    326 C(3)        7.6527   33.1102   15.5516 C.ar      1 UNK         0.0000 
    327 C(4)        8.7227   32.7475   14.7376 C.ar      1 UNK         0.0000 
    328 C(5)        9.8183   32.0891   15.2947 C.ar      1 UNK         0.0000 
    329 C(6)        9.8236   31.7763   16.6465 C.ar      1 UNK         0.0000 
    330 C(7)        7.8505   31.6038   19.7163 C.2       1 UNK         0.0000 
    331 C(8)        8.2914   31.1711   21.0890 C.3       1 UNK         0.0000 
    332 H(1)        6.8192   33.0871   17.5290 H         1 UNK         0.0000 
    333 H(2)        6.8019   33.6401   15.1413 H         1 UNK         0.0000 
    334 H(3)       10.6615   31.8190   14.6710 H         1 UNK         0.0000 
    335 H(4)       10.6742   31.2632   17.0780 H         1 UNK         0.0000 
    336 H(5)        9.5314   32.9868   13.0039 H         1 UNK         0.0000 
    337 H(6)        9.7673   31.5119   19.1403 H         1 UNK         0.0000 
    338 H(7)        8.2131   31.9956   21.7490 H         1 UNK         0.0000 
    339 H(8)        9.2882   30.8140   21.1093 H         1 UNK         0.0000 
    340 H(9)        7.6109   30.4480   21.4570 H         1 UNK         0.0000 
    341 O(1)       13.0115   21.7258   16.5945 O.3       1 UNK         0.0000 
    342 O(2)       15.0093   27.8946   16.7103 O.2       1 UNK         0.0000 
    343 N(1)       12.8281   27.2902   16.5226 N.am      1 UNK         0.0000 
    344 C(1)       12.9276   25.8818   16.5738 C.ar      1 UNK         0.0000 
    345 C(2)       14.0098   25.1936   17.1221 C.ar      1 UNK         0.0000 
    346 C(3)       14.0168   23.8017   17.1257 C.ar      1 UNK         0.0000 
    347 C(4)       12.9468   23.0871   16.5933 C.ar      1 UNK         0.0000 
    348 C(5)       11.8512   23.7751   16.0731 C.ar      1 UNK         0.0000 
    349 C(6)       11.8458   25.1626   16.0644 C.ar      1 UNK         0.0000 
    350 C(7)       13.8189   28.1955   16.5694 C.2       1 UNK         0.0000 
    351 C(8)       13.3781   29.6296   16.4484 C.3       1 UNK         0.0000 
    352 H(1)       14.8503   25.7361   17.5368 H         1 UNK         0.0000 
    353 H(2)       14.8676   23.2853   17.5527 H         1 UNK         0.0000 
    354 H(3)       11.0080   23.2258   15.6728 H         1 UNK         0.0000 
    355 H(4)       10.9952   25.6961   15.6585 H         1 UNK         0.0000 
    356 H(5)       12.1380   21.3432   16.4465 H         1 UNK         0.0000 
    357 H(6)       11.9022   27.6537   16.3534 H         1 UNK         0.0000 
    358 H(7)       13.4563   30.0928   17.3976 H         1 UNK         0.0000 
    359 H(8)       12.3813   29.7278   16.1044 H         1 UNK         0.0000 
    360 H(9)       14.0585   30.1473   15.8236 H         1 UNK         0.0000 
    361 O(1)        8.6776   19.2412   22.6641 O.3       1 UNK         0.0000 
    362 O(2)       10.6754   20.4813   16.6201 O.2       1 UNK         0.0000 
    363 N(1)        8.4943   20.5319   17.2510 N.am      1 UNK         0.0000 
    364 C(1)        8.5937   20.1730   18.6139 C.ar      1 UNK         0.0000 
    365 C(2)        9.6759   19.4871   19.1651 C.ar      1 UNK         0.0000 
    366 C(3)        9.6829   19.1784   20.5223 C.ar      1 UNK         0.0000 
    367 C(4)        8.6129   19.5410   21.3362 C.ar      1 UNK         0.0000 
    368 C(5)        7.5173   20.1994   20.7791 C.ar      1 UNK         0.0000 
    369 C(6)        7.5120   20.5123   19.4273 C.ar      1 UNK         0.0000 
    370 C(7)        9.4850   20.6847   16.3575 C.2       1 UNK         0.0000 
    371 C(8)        9.0442   21.1174   14.9848 C.3       1 UNK         0.0000 
    372 H(1)       10.5164   19.2015   18.5448 H         1 UNK         0.0000 
    373 H(2)       10.5337   18.6484   20.9325 H         1 UNK         0.0000 
    374 H(3)        6.6741   20.4695   21.4028 H         1 UNK         0.0000 
    375 H(4)        6.6613   21.0253   18.9958 H         1 UNK         0.0000 
    376 H(5)        7.8041   19.3017   23.0699 H         1 UNK         0.0000 
    377 H(6)        7.5683   20.7767   16.9335 H         1 UNK         0.0000 
    378 H(7)        9.1224   20.2929   14.3248 H         1 UNK         0.0000 
    379 H(8)        8.0474   21.4745   14.9645 H         1 UNK         0.0000 
    380 H(9)        9.7247   21.8405   14.6168 H         1 UNK         0.0000 
    381 O(1)       11.4011   30.5627   19.4793 O.3       1 UNK         0.0000 
    382 O(2)        9.4033   24.3939   19.3635 O.2       1 UNK         0.0000 
    383 N(1)       11.5844   24.9983   19.5512 N.am      1 UNK         0.0000 
    384 C(1)       11.4850   26.4068   19.5000 C.ar      1 UNK         0.0000 
    385 C(2)       10.4028   27.0950   18.9517 C.ar      1 UNK         0.0000 
    386 C(3)       10.3958   28.4868   18.9482 C.ar      1 UNK         0.0000 
    387 C(4)       11.4658   29.2014   19.4805 C.ar      1 UNK         0.0000 
    388 C(5)       12.5614   28.5135   20.0007 C.ar      1 UNK         0.0000 
    389 C(6)       12.5667   27.1259   20.0094 C.ar      1 UNK         0.0000 
    390 C(7)       10.5936   24.0930   19.5044 C.2       1 UNK         0.0000 
    391 C(8)       11.0345   22.6589   19.6254 C.3       1 UNK         0.0000 
    392 H(1)        9.5623   26.5524   18.5370 H         1 UNK         0.0000 
    393 H(2)        9.5450   29.0033   18.5211 H         1 UNK         0.0000 
    394 H(3)       13.4046   29.0627   20.4010 H         1 UNK         0.0000 
    395 H(4)       13.4173   26.5924   20.4154 H         1 UNK         0.0000 
    396 H(5)       12.2745   30.9453   19.6273 H         1 UNK         0.0000 
    397 H(6)       12.5104   24.6348   19.7204 H         1 UNK         0.0000 
    398 H(7)       10.9562   22.1958   18.6762 H         1 UNK         0.0000 
    399 H(8)       12.0313   22.5607   19.9694 H         1 UNK         0.0000 
    400 H(9)       10.3540   22.1412   20.2502 H         1 UNK         0.0000 
    401 O(1)        7.0672   24.0960   20.5721 O.3       1 UNK         0.0000 
    402 O(2)        5.0694   22.8559   26.6161 O.2       1 UNK         0.0000 
    403 N(1)        7.2505   22.8052   25.9852 N.am      1 UNK         0.0000 
    404 C(1)        7.1511   23.1642   24.6223 C.ar      1 UNK         0.0000 
    405 C(2)        6.0689   23.8500   24.0711 C.ar      1 UNK         0.0000 
    406 C(3)        6.0619   24.1588   22.7140 C.ar      1 UNK         0.0000 
    407 C(4)        7.1319   23.7962   21.9000 C.ar      1 UNK         0.0000 
    408 C(5)        8.2275   23.1378   22.4571 C.ar      1 UNK         0.0000 
    409 C(6)        8.2328   22.8249   23.8089 C.ar      1 UNK         0.0000 
    410 C(7)        6.2598   22.6524   26.8787 C.2       1 UNK         0.0000 
    411 C(8)        6.7006   22.2198   28.2514 C.3       1 UNK         0.0000 
    412 H(1)        5.2284   24.1357   24.6914 H         1 UNK         0.0000 
    413 H(2)        5.2111   24.6887   22.3037 H         1 UNK         0.0000 
    414 H(3)        9.0707   22.8677   21.8334 H         1 UNK         0.0000 
    415 H(4)        9.0834   22.3118   24.2404 H         1 UNK         0.0000 
    416 H(5)        7.9406   24.0354   20.1663 H         1 UNK         0.0000 
    417 H(6)        8.1765   22.5605   26.3027 H         1 UNK         0.0000 
    418 H(7)        6.6223   23.0442   28.9114 H         1 UNK         0.0000 
    419 H(8)        7.6974   21.8626   28.2717 H         1 UNK         0.0000 
    420 H(9)        6.0201   21.4967   28.6194 H         1 UNK         0.0000 
    421 O(1)        5.9345   27.4568   23.7569 O.3       1 UNK         0.0000 
    422 O(2)        7.9323   33.6256   23.8727 O.2       1 UNK         0.0000 
    423 N(1)        5.7511   33.0212   23.6850 N.am      1 UNK         0.0000 
    424 C(1)        5.8506   31.6127   23.7362 C.ar      1 UNK         0.0000 
    425 C(2)        6.9328   30.9245   24.2845 C.ar      1 UNK         0.0000 
    426 C(3)        6.9398   29.5327   24.2881 C.ar      1 UNK         0.0000 
    427 C(4)        5.8698   28.8181   23.7557 C.ar      1 UNK         0.0000 
    428 C(5)        4.7742   29.5060   23.2355 C.ar      1 UNK         0.0000 
    429 C(6)        4.7688   30.8936   23.2268 C.ar      1 UNK         0.0000 
    430 C(7)        6.7419   33.9265   23.7318 C.2       1 UNK         0.0000 
    431 C(8)        6.3011   35.3606   23.6108 C.3       1 UNK         0.0000 
    432 H(1)        7.7733   31.4671   24.6992 H         1 UNK         0.0000 
    433 H(2)        7.7906   29.0162   24.7151 H         1 UNK         0.0000 
    434 H(3)        3.9310   28.9568   22.8352 H         1 UNK         0.0000 
    435 H(4)        3.9182   31.4271   22.8209 H         1 UNK         0.0000 
    436 H(5)        5.0610   27.0742   23.6089 H         1 UNK         0.0000 
    437 H(6)        4.8252   33.3846   23.5158 H         1 UNK         0.0000 
    438 H(7)        6.3793   35.8237   24.5600 H         1 UNK         0.0000 
    439 H(8)        5.3043   35.4588   23.2668 H         1 UNK         0.0000 
    440 H(9)        6.9815   35.8783   22.9860 H         1 UNK         0.0000 
    441 O(1)       10.2684   22.4616    8.3393 O.3       1 UNK         0.0000 
    442 O(2)       12.2662   23.7017    2.2953 O.2       1 UNK         0.0000 
    443 N(1)       10.0850   23.7523    2.9262 N.am      1 UNK         0.0000 
    444 C(1)       10.1845   23.3934    4.2891 C.ar      1 UNK         0.0000 
    445 C(2)       11.2666   22.7075    4.8403 C.ar      1 UNK         0.0000 
    446 C(3)       11.2737   22.3988    6.1975 C.ar      1 UNK         0.0000 
    447 C(4)       10.2037   22.7614    7.0114 C.ar      1 UNK         0.0000 
    448 C(5)        9.1080   23.4198    6.4543 C.ar      1 UNK         0.0000 
    449 C(6)        9.1027   23.7327    5.1025 C.ar      1 UNK         0.0000 
    450 C(7)       11.0758   23.9051    2.0327 C.2       1 UNK         0.0000 
    451 C(8)       10.6350   24.3378    0.6600 C.3       1 UNK         0.0000 
    452 H(1)       12.1072   22.4219    4.2200 H         1 UNK         0.0000 
    453 H(2)       12.1245   21.8688    6.6077 H         1 UNK         0.0000 
    454 H(3)        8.2649   23.6899    7.0780 H         1 UNK         0.0000 
    455 H(4)        8.2521   24.2457    4.6710 H         1 UNK         0.0000 
    456 H(5)        9.3949   22.5221    8.7451 H         1 UNK         0.0000 
    457 H(6)        9.1591   23.9971    2.6087 H         1 UNK         0.0000 
    458 H(7)       10.7132   23.5133    0.0000 H         1 UNK         0.0000 
    459 H(8)        9.6382   24.6949    0.6397 H         1 UNK         0.0000 
    460 H(9)       11.3154   25.0609    0.2920 H         1 UNK         0.0000 
    461 O(1)       12.9919   33.7831    5.1545 O.3       1 UNK         0.0000 
    462 O(2)       10.9941   27.6143    5.0387 O.2       1 UNK         0.0000 
    463 N(1)       13.1752   28.2187    5.2264 N.am      1 UNK         0.0000 
    464 C(1)       13.0757   29.6272    5.1752 C.ar      1 UNK         0.0000 
    465 C(2)       11.9936   30.3154    4.6269 C.ar      1 UNK         0.0000 
    466 C(3)       11.9866   31.7072    4.6234 C.ar      1 UNK         0.0000 
    467 C(4)       13.0566   32.4218    5.1557 C.ar      1 UNK         0.0000 
    468 C(5)       14.1522   31.7339    5.6759 C.ar      1 UNK         0.0000 
    469 C(6)       14.1575   30.3463    5.6846 C.ar      1 UNK         0.0000 
    470 C(7)       12.1844   27.3134    5.1796 C.2       1 UNK         0.0000 
    471 C(8)       12.6253   25.8793    5.3006 C.3       1 UNK         0.0000 
    472 H(1)       11.1531   29.7728    4.2122 H         1 UNK         0.0000 
    473 H(2)       11.1358   32.2236    4.1963 H         1 UNK         0.0000 
    474 H(3)       14.9954   32.2831    6.0762 H         1 UNK         0.0000 
    475 H(4)       15.0081   29.8128    6.0906 H         1 UNK         0.0000 
    476 H(5)       13.8653   34.1657    5.3025 H         1 UNK         0.0000 
    477 H(6)       14.1012   27.8552    5.3956 H         1 UNK         0.0000 
    478 H(7)       12.5470   25.4162    4.3514 H         1 UNK         0.0000 
    479 H(8)       13.6221   25.7811    5.6446 H         1 UNK         0.0000 
    480 H(9)       11.9448   25.3616    5.9254 H         1 UNK         0.0000 
    481 O(1)       10.2488   41.9987    6.2473 O.3       1 UNK         0.0000 
    482 O(2)        8.2510   40.7586   12.2913 O.2       1 UNK         0.0000 
    483 N(1)       10.4321   40.7080   11.6604 N.am      1 UNK         0.0000 
    484 C(1)       10.3326   41.0669   10.2975 C.ar      1 UNK         0.0000 
    485 C(2)        9.2505   41.7528    9.7463 C.ar      1 UNK         0.0000 
    486 C(3)        9.2435   42.0615    8.3892 C.ar      1 UNK         0.0000 
    487 C(4)       10.3135   41.6989    7.5752 C.ar      1 UNK         0.0000 
    488 C(5)       11.4091   41.0405    8.1323 C.ar      1 UNK         0.0000 
    489 C(6)       11.4144   40.7276    9.4841 C.ar      1 UNK         0.0000 
    490 C(7)        9.4413   40.5551   12.5539 C.2       1 UNK         0.0000 
    491 C(8)        9.8822   40.1225   13.9266 C.3       1 UNK         0.0000 
    492 H(1)        8.4100   42.0384   10.3666 H         1 UNK         0.0000 
    493 H(2)        8.3926   42.5914    7.9789 H         1 UNK         0.0000 
    494 H(3)       12.2523   40.7704    7.5086 H         1 UNK         0.0000 
    495 H(4)       12.2650   40.2146    9.9156 H         1 UNK         0.0000 
    496 H(5)       11.1222   41.9382    5.8415 H         1 UNK         0.0000 
    497 H(6)       11.3581   40.4632   11.9779 H         1 UNK         0.0000 
    498 H(7)        9.8039   40.9470   14.5866 H         1 UNK         0.0000 
    499 H(8)       10.8790   39.7654   13.9469 H         1 UNK         0.0000 
    500 H(9)        9.2017   39.3994   14.2946 H         1 UNK         0.0000 
    501 O(1)       14.6023   30.6772    9.4321 O.3       1 UNK         0.0000 
    502 O(2)       16.6001   36.8460    9.5479 O.2       1 UNK         0.0000 
    503 N(1)       14.4189   36.2416    9.3602 N.am      1 UNK         0.0000 
    504 C(1)       14.5184   34.8331    9.4114 C.ar      1 UNK         0.0000 
    505 C(2)       15.6005   34.1449    9.9597 C.ar      1 UNK         0.0000 
    506 C(3)       15.6076   32.7531    9.9633 C.ar      1 UNK         0.0000 
    507 C(4)       14.5375   32.0385    9.4309 C.ar      1 UNK         0.0000 
    508 C(5)       13.4419   32.7264    8.9107 C.ar      1 UNK         0.0000 
    509 C(6)       13.4366   34.1140    8.9020 C.ar      1 UNK         0.0000 
    510 C(7)       15.4097   37.1469    9.4070 C.2       1 UNK         0.0000 
    511 C(8)       14.9688   38.5810    9.2860 C.3       1 UNK         0.0000 
    512 H(1)       16.4411   34.6875   10.3744 H         1 UNK         0.0000 
    513 H(2)       16.4584   32.2366   10.3903 H         1 UNK         0.0000 
    514 H(3)       12.5988   32.1772    8.5104 H         1 UNK         0.0000 
    515 H(4)       12.5860   34.6475    8.4961 H         1 UNK         0.0000 
    516 H(5)       13.7288   30.2946    9.2841 H         1 UNK         0.0000 
    517 H(6)       13.4930   36.6050    9.1910 H         1 UNK         0.0000 
    518 H(7)       15.0471   39.0441   10.2352 H         1 UNK         0.0000 
    519 H(8)       13.9721   38.6792    8.9420 H         1 UNK         0.0000 
    520 H(9)       15.6493   39.0987    8.6612 H         1 UNK         0.0000 
    521 O(1)        4.7822   42.8749   15.5017 O.3       1 UNK         0.0000 
    522 O(2)        6.7800   44.1150    9.4577 O.2       1 UNK         0.0000 
    523 N(1)        4.5988   44.1656   10.0886 N.am      1 UNK         0.0000 
    524 C(1)        4.6983   43.8067   11.4515 C.ar      1 UNK         0.0000 
    525 C(2)        5.7804   43.1208   12.0027 C.ar      1 UNK         0.0000 
    526 C(3)        5.7875   42.8120   13.3599 C.ar      1 UNK         0.0000 
    527 C(4)        4.7174   43.1747   14.1738 C.ar      1 UNK         0.0000 
    528 C(5)        3.6218   43.8331   13.6167 C.ar      1 UNK         0.0000 
    529 C(6)        3.6165   44.1460   12.2649 C.ar      1 UNK         0.0000 
    530 C(7)        5.5896   44.3184    9.1951 C.2       1 UNK         0.0000 
    531 C(8)        5.1487   44.7511    7.8224 C.3       1 UNK         0.0000 
    532 H(1)        6.6210   42.8352   11.3824 H         1 UNK         0.0000 
    533 H(2)        6.6383   42.2821   13.7701 H         1 UNK         0.0000 
    534 H(3)        2.7787   44.1032   14.2404 H         1 UNK         0.0000 
    535 H(4)        2.7659   44.6590   11.8334 H         1 UNK         0.0000 
    536 H(5)        3.9087   42.9354   15.9075 H         1 UNK         0.0000 
    537 H(6)        3.6729   44.4103    9.7711 H         1 UNK         0.0000 
    538 H(7)        5.2270   43.9266    7.1624 H         1 UNK         0.0000 
    539 H(8)        4.1520   45.1082    7.8021 H         1 UNK         0.0000 
    540 H(9)        5.8292   45.4742    7.4544 H         1 UNK         0.0000 
    541 O(1)        5.9149   39.5141   12.3169 O.3       1 UNK         0.0000 
    542 O(2)        3.9171   33.3453   12.2011 O.2       1 UNK         0.0000 
    543 N(1)        6.0982   33.9497   12.3888 N.am      1 UNK         0.0000 
    544 C(1)        5.9987   35.3581   12.3376 C.ar      1 UNK         0.0000 
    545 C(2)        4.9166   36.0463   11.7893 C.ar      1 UNK         0.0000 
    546 C(3)        4.9096   37.4381   11.7858 C.ar      1 UNK         0.0000 
    547 C(4)        5.9796   38.1527   12.3181 C.ar      1 UNK         0.0000 
    548 C(5)        7.0752   37.4648   12.8383 C.ar      1 UNK         0.0000 
    549 C(6)        7.0805   36.0773   12.8470 C.ar      1 UNK         0.0000 
    550 C(7)        5.1074   33.0444   12.3420 C.2       1 UNK         0.0000 
    551 C(8)        5.5483   31.6102   12.4630 C.3       1 UNK         0.0000 
    552 H(1)        4.0761   35.5038   11.3746 H         1 UNK         0.0000 
    553 H(2)        4.0588   37.9546   11.3587 H         1 UNK         0.0000 
    554 H(3)        7.9184   38.0141   13.2386 H         1 UNK         0.0000 
    555 H(4)        7.9311   35.5438   13.2530 H         1 UNK         0.0000 
    556 H(5)        6.7883   39.8967   12.4649 H         1 UNK         0.0000 
    557 H(6)        7.0242   33.5862   12.5580 H         1 UNK         0.0000 
    558 H(7)        5.4700   31.1471   11.5138 H         1 UNK         0.0000 
    559 H(8)        6.5451   31.5121   12.8070 H         1 UNK         0.0000 
    560 H(9)        4.8678   31.0926   13.0878 H         1 UNK         0.0000 
    561 O(1)       10.2488   47.7297   13.4097 O.3       1 UNK         0.0000 
    562 O(2)        8.2510   46.4896   19.4537 O.2       1 UNK         0.0000 
    563 N(1)       10.4321   46.4389   18.8228 N.am      1 UNK         0.0000 
    564 C(1)       10.3326   46.7979   17.4599 C.ar      1 UNK         0.0000 
    565 C(2)        9.2505   47.4837   16.9087 C.ar      1 UNK         0.0000 
    566 C(3)        9.2435   47.7925   15.5516 C.ar      1 UNK         0.0000 
    567 C(4)       10.3135   47.4298   14.7376 C.ar      1 UNK         0.0000 
    568 C(5)       11.4091   46.7715   15.2947 C.ar      1 UNK         0.0000 
    569 C(6)       11.4144   46.4586   16.6465 C.ar      1 UNK         0.0000 
    570 C(7)        9.4413   46.2861   19.7163 C.2       1 UNK         0.0000 
    571 C(8)        9.8822   45.8535   21.0890 C.3       1 UNK         0.0000 
    572 H(1)        8.4100   47.7694   17.5290 H         1 UNK         0.0000 
    573 H(2)        8.3926   48.3224   15.1413 H         1 UNK         0.0000 
    574 H(3)       12.2523   46.5014   14.6710 H         1 UNK         0.0000 
    575 H(4)       12.2650   45.9455   17.0780 H         1 UNK         0.0000 
    576 H(5)       11.1222   47.6691   13.0039 H         1 UNK         0.0000 
    577 H(6)       11.3581   46.1942   19.1403 H         1 UNK         0.0000 
    578 H(7)        9.8039   46.6779   21.7490 H         1 UNK         0.0000 
    579 H(8)       10.8790   45.4963   21.1093 H         1 UNK         0.0000 
    580 H(9)        9.2017   45.1304   21.4570 H         1 UNK         0.0000 
    581 O(1)       14.6023   36.4082   16.5945 O.3       1 UNK         0.0000 
    582 O(2)       16.6001   42.5769   16.7103 O.2       1 UNK         0.0000 
    583 N(1)       14.4189   41.9725   16.5226 N.am      1 UNK         0.0000 
    584 C(1)       14.5184   40.5641   16.5738 C.ar      1 UNK         0.0000 
    585 C(2)       15.6005   39.8759   17.1221 C.ar      1 UNK         0.0000 
    586 C(3)       15.6076   38.4841   17.1257 C.ar      1 UNK         0.0000 
    587 C(4)       14.5375   37.7695   16.5933 C.ar      1 UNK         0.0000 
    588 C(5)       13.4419   38.4574   16.0731 C.ar      1 UNK         0.0000 
    589 C(6)       13.4366   39.8449   16.0644 C.ar      1 UNK         0.0000 
    590 C(7)       15.4097   42.8779   16.5694 C.2       1 UNK         0.0000 
    591 C(8)       14.9688   44.3120   16.4484 C.3       1 UNK         0.0000 
    592 H(1)       16.4411   40.4184   17.5368 H         1 UNK         0.0000 
    593 H(2)       16.4584   37.9676   17.5527 H         1 UNK         0.0000 
    594 H(3)       12.5988   37.9081   15.6728 H         1 UNK         0.0000 
    595 H(4)       12.5860   40.3784   15.6585 H         1 UNK         0.0000 
    596 H(5)       13.7288   36.0256   16.4465 H         1 UNK         0.0000 
    597 H(6)       13.4930   42.3360   16.3534 H         1 UNK         0.0000 
    598 H(7)       15.0471   44.7751   17.3976 H         1 UNK         0.0000 
    599 H(8)       13.9721   44.4101   16.1044 H         1 UNK         0.0000 
    600 H(9)       15.6493   44.8296   15.8236 H         1 UNK         0.0000 
    601 O(1)       10.2684   33.9235   22.6641 O.3       1 UNK         0.0000 
    602 O(2)       12.2662   35.1636   16.6201 O.2       1 UNK         0.0000 
    603 N(1)       10.0850   35.2142   17.2510 N.am      1 UNK         0.0000 
    604 C(1)       10.1845   34.8553   18.6139 C.ar      1 UNK         0.0000 
    605 C(2)       11.2666   34.1694   19.1651 C.ar      1 UNK         0.0000 
    606 C(3)       11.2737   33.8607   20.5223 C.ar      1 UNK         0.0000 
    607 C(4)       10.2037   34.2233   21.3362 C.ar      1 UNK         0.0000 
    608 C(5)        9.1080   34.8817   20.7791 C.ar      1 UNK         0.0000 
    609 C(6)        9.1027   35.1946   19.4273 C.ar      1 UNK         0.0000 
    610 C(7)       11.0758   35.3671   16.3575 C.2       1 UNK         0.0000 
    611 C(8)       10.6350   35.7997   14.9848 C.3       1 UNK         0.0000 
    612 H(1)       12.1072   33.8838   18.5448 H         1 UNK         0.0000 
    613 H(2)       12.1245   33.3308   20.9325 H         1 UNK         0.0000 
    614 H(3)        8.2649   35.1518   21.4028 H         1 UNK         0.0000 
    615 H(4)        8.2521   35.7077   18.9958 H         1 UNK         0.0000 
    616 H(5)        9.3949   33.9840   23.0699 H         1 UNK         0.0000 
    617 H(6)        9.1591   35.4590   16.9335 H         1 UNK         0.0000 
    618 H(7)       10.7132   34.9753   14.3248 H         1 UNK         0.0000 
    619 H(8)        9.6382   36.1568   14.9645 H         1 UNK         0.0000 
    620 H(9)       11.3154   36.5228   14.6168 H         1 UNK         0.0000 
    621 O(1)       12.9919   45.2450   19.4793 O.3       1 UNK         0.0000 
    622 O(2)       10.9941   39.0762   19.3635 O.2       1 UNK         0.0000 
    623 N(1)       13.1752   39.6806   19.5512 N.am      1 UNK         0.0000 
    624 C(1)       13.0757   41.0891   19.5000 C.ar      1 UNK         0.0000 
    625 C(2)       11.9936   41.7773   18.9517 C.ar      1 UNK         0.0000 
    626 C(3)       11.9866   43.1691   18.9482 C.ar      1 UNK         0.0000 
    627 C(4)       13.0566   43.8837   19.4805 C.ar      1 UNK         0.0000 
    628 C(5)       14.1522   43.1958   20.0007 C.ar      1 UNK         0.0000 
    629 C(6)       14.1575   41.8082   20.0094 C.ar      1 UNK         0.0000 
    630 C(7)       12.1844   38.7753   19.5044 C.2       1 UNK         0.0000 
    631 C(8)       12.6253   37.3412   19.6254 C.3       1 UNK         0.0000 
    632 H(1)       11.1531   41.2348   18.5370 H         1 UNK         0.0000 
    633 H(2)       11.1358   43.6856   18.5211 H         1 UNK         0.0000 
    634 H(3)       14.9954   43.7450   20.4010 H         1 UNK         0.0000 
    635 H(4)       15.0081   41.2747   20.4154 H         1 UNK         0.0000 
    636 H(5)       13.8653   45.6276   19.6273 H         1 UNK         0.0000 
    637 H(6)       14.1012   39.3172   19.7204 H         1 UNK         0.0000 
    638 H(7)       12.5470   36.8781   18.6762 H         1 UNK         0.0000 
    639 H(8)       13.6221   37.2431   19.9694 H         1 UNK         0.0000 
    640 H(9)       11.9448   36.8235   20.2502 H         1 UNK         0.0000 
    641 O(1)        8.6580   38.7783   20.5721 O.3       1 UNK         0.0000 
    642 O(2)        6.6602   37.5382   26.6161 O.2       1 UNK         0.0000 
    643 N(1)        8.8413   37.4876   25.9852 N.am      1 UNK         0.0000 
    644 C(1)        8.7419   37.8465   24.6223 C.ar      1 UNK         0.0000 
    645 C(2)        7.6597   38.5324   24.0711 C.ar      1 UNK         0.0000 
    646 C(3)        7.6527   38.8411   22.7140 C.ar      1 UNK         0.0000 
    647 C(4)        8.7227   38.4785   21.9000 C.ar      1 UNK         0.0000 
    648 C(5)        9.8183   37.8201   22.4571 C.ar      1 UNK         0.0000 
    649 C(6)        9.8236   37.5072   23.8089 C.ar      1 UNK         0.0000 
    650 C(7)        7.8505   37.3347   26.8787 C.2       1 UNK         0.0000 
    651 C(8)        8.2914   36.9021   28.2514 C.3       1 UNK         0.0000 
    652 H(1)        6.8192   38.8180   24.6914 H         1 UNK         0.0000 
    653 H(2)        6.8019   39.3710   22.3037 H         1 UNK         0.0000 
    654 H(3)       10.6615   37.5500   21.8334 H         1 UNK         0.0000 
    655 H(4)       10.6742   36.9942   24.2404 H         1 UNK         0.0000 
    656 H(5)        9.5314   38.7178   20.1663 H         1 UNK         0.0000 
    657 H(6)        9.7673   37.2428   26.3027 H         1 UNK         0.0000 
    658 H(7)        8.2131   37.7266   28.9114 H         1 UNK         0.0000 
    659 H(8)        9.2882   36.5450   28.2717 H         1 UNK         0.0000 
    660 H(9)        7.6109   36.1790   28.6194 H         1 UNK         0.0000 
    661 O(1)        7.5253   42.1391   23.7569 O.3       1 UNK         0.0000 
    662 O(2)        9.5231   48.3079   23.8727 O.2       1 UNK         0.0000 
    663 N(1)        7.3419   47.7035   23.6850 N.am      1 UNK         0.0000 
    664 C(1)        7.4414   46.2951   23.7362 C.ar      1 UNK         0.0000 
    665 C(2)        8.5235   45.6068   24.2845 C.ar      1 UNK         0.0000 
    666 C(3)        8.5306   44.2150   24.2881 C.ar      1 UNK         0.0000 
    667 C(4)        7.4605   43.5004   23.7557 C.ar      1 UNK         0.0000 
    668 C(5)        6.3649   44.1884   23.2355 C.ar      1 UNK         0.0000 
    669 C(6)        6.3596   45.5759   23.2268 C.ar      1 UNK         0.0000 
    670 C(7)        8.3327   48.6088   23.7318 C.2       1 UNK         0.0000 
    671 C(8)        7.8918   50.0429   23.6108 C.3       1 UNK         0.0000 
    672 H(1)        9.3641   46.1494   24.6992 H         1 UNK         0.0000 
    673 H(2)        9.3814   43.6986   24.7151 H         1 UNK         0.0000 
    674 H(3)        5.5218   43.6391   22.8352 H         1 UNK         0.0000 
    675 H(4)        5.5090   46.1094   22.8209 H         1 UNK         0.0000 
    676 H(5)        6.6518   41.7565   23.6089 H         1 UNK         0.0000 
    677 H(6)        6.4160   48.0670   23.5158 H         1 UNK         0.0000 
    678 H(7)        7.9701   50.5060   24.5600 H         1 UNK         0.0000 
    679 H(8)        6.8951   50.1411   23.2668 H         1 UNK         0.0000 
    680 H(9)        8.5723   50.5606   22.9860 H         1 UNK         0.0000 
    681 O(1)       11.8592   37.1439    8.3393 O.3       1 UNK         0.0000 
    682 O(2)       13.8570   38.3840    2.2953 O.2       1 UNK         0.0000 
    683 N(1)       11.6758   38.4346    2.9262 N.am      1 UNK         0.0000 
    684 C(1)       11.7753   38.0757    4.2891 C.ar      1 UNK         0.0000 
    685 C(2)       12.8574   37.3898    4.8403 C.ar      1 UNK         0.0000 
    686 C(3)       12.8645   37.0811    6.1975 C.ar      1 UNK         0.0000 
    687 C(4)       11.7944   37.4437    7.0114 C.ar      1 UNK         0.0000 
    688 C(5)       10.6988   38.1021    6.4543 C.ar      1 UNK         0.0000 
    689 C(6)       10.6935   38.4150    5.1025 C.ar      1 UNK         0.0000 
    690 C(7)       12.6666   38.5875    2.0327 C.2       1 UNK         0.0000 
    691 C(8)       12.2257   39.0201    0.6600 C.3       1 UNK         0.0000 
    692 H(1)       13.6980   37.1042    4.2200 H         1 UNK         0.0000 
    693 H(2)       13.7153   36.5512    6.6077 H         1 UNK         0.0000 
    694 H(3)        9.8557   38.3722    7.0780 H         1 UNK         0.0000 
    695 H(4)        9.8429   38.9281    4.6710 H         1 UNK         0.0000 
    696 H(5)       10.9857   37.2044    8.7451 H         1 UNK         0.0000 
    697 H(6)       10.7499   38.6794    2.6087 H         1 UNK         0.0000 
    698 H(7)       12.3040   38.1956    0.0000 H         1 UNK         0.0000 
    699 H(8)       11.2290   39.3772    0.6397 H         1 UNK         0.0000 
    700 H(9)       12.9062   39.7432    0.2920 H         1 UNK         0.0000 
    701 O(1)       14.5827   48.4654    5.1545 O.3       1 UNK         0.0000 
    702 O(2)       12.5848   42.2966    5.0387 O.2       1 UNK         0.0000 
    703 N(1)       14.7660   42.9010    5.2264 N.am      1 UNK         0.0000 
    704 C(1)       14.6665   44.3095    5.1752 C.ar      1 UNK         0.0000 
    705 C(2)       13.5844   44.9977    4.6269 C.ar      1 UNK         0.0000 
    706 C(3)       13.5773   46.3895    4.6234 C.ar      1 UNK         0.0000 
    707 C(4)       14.6474   47.1041    5.1557 C.ar      1 UNK         0.0000 
    708 C(5)       15.7430   46.4162    5.6759 C.ar      1 UNK         0.0000 
    709 C(6)       15.7483   45.0286    5.6846 C.ar      1 UNK         0.0000 
    710 C(7)       13.7752   41.9957    5.1796 C.2       1 UNK         0.0000 
    711 C(8)       14.2161   40.5616    5.3006 C.3       1 UNK         0.0000 
    712 H(1)       12.7438   44.4552    4.2122 H         1 UNK         0.0000 
    713 H(2)       12.7265   46.9060    4.1963 H         1 UNK         0.0000 
    714 H(3)       16.5861   46.9654    6.0762 H         1 UNK         0.0000 
    715 H(4)       16.5989   44.4951    6.0906 H         1 UNK         0.0000 
    716 H(5)       15.4561   48.8480    5.3025 H         1 UNK         0.0000 
    717 H(6)       15.6920   42.5376    5.3956 H         1 UNK         0.0000 
    718 H(7)       14.1378   40.0985    4.3514 H         1 UNK         0.0000 
    719 H(8)       15.2128   40.4635    5.6446 H         1 UNK         0.0000 
    720 H(9)       13.5356   40.0439    5.9254 H         1 UNK         0.0000 
    721 O(1)       11.8395   56.6810    6.2473 O.3       1 UNK         0.0000 
    722 O(2)        9.8417   55.4409   12.2913 O.2       1 UNK         0.0000 
    723 N(1)       12.0229   55.3903   11.6604 N.am      1 UNK         0.0000 
    724 C(1)       11.9234   55.7492   10.2975 C.ar      1 UNK         0.0000 
    725 C(2)       10.8413   56.4351    9.7463 C.ar      1 UNK         0.0000 
    726 C(3)       10.8342   56.7439    8.3892 C.ar      1 UNK         0.0000 
    727 C(4)       11.9043   56.3812    7.5752 C.ar      1 UNK         0.0000 
    728 C(5)       12.9999   55.7228    8.1323 C.ar      1 UNK         0.0000 
    729 C(6)       13.0052   55.4100    9.4841 C.ar      1 UNK         0.0000 
    730 C(7)       11.0321   55.2375   12.5539 C.2       1 UNK         0.0000 
    731 C(8)       11.4730   54.8048   13.9266 C.3       1 UNK         0.0000 
    732 H(1)       10.0007   56.7208   10.3666 H         1 UNK         0.0000 
    733 H(2)        9.9834   57.2738    7.9789 H         1 UNK         0.0000 
    734 H(3)       13.8430   55.4527    7.5086 H         1 UNK         0.0000 
    735 H(4)       13.8558   54.8969    9.9156 H         1 UNK         0.0000 
    736 H(5)       12.7130   56.6205    5.8415 H         1 UNK         0.0000 
    737 H(6)       12.9488   55.1456   11.9779 H         1 UNK         0.0000 
    738 H(7)       11.3947   55.6293   14.5866 H         1 UNK         0.0000 
    739 H(8)       12.4697   54.4477   13.9469 H         1 UNK         0.0000 
    740 H(9)       10.7925   54.0817   14.2946 H         1 UNK         0.0000 
    741 O(1)       16.1930   45.3595    9.4321 O.3       1 UNK         0.0000 
    742 O(2)       18.1909   51.5283    9.5479 O.2       1 UNK         0.0000 
    743 N(1)       16.0097   50.9239    9.3602 N.am      1 UNK         0.0000 
    744 C(1)       16.1092   49.5155    9.4114 C.ar      1 UNK         0.0000 
    745 C(2)       17.1913   48.8272    9.9597 C.ar      1 UNK         0.0000 
    746 C(3)       17.1984   47.4354    9.9633 C.ar      1 UNK         0.0000 
    747 C(4)       16.1283   46.7208    9.4309 C.ar      1 UNK         0.0000 
    748 C(5)       15.0327   47.4088    8.9107 C.ar      1 UNK         0.0000 
    749 C(6)       15.0274   48.7963    8.9020 C.ar      1 UNK         0.0000 
    750 C(7)       17.0005   51.8292    9.4070 C.2       1 UNK         0.0000 
    751 C(8)       16.5596   53.2633    9.2860 C.3       1 UNK         0.0000 
    752 H(1)       18.0319   49.3698   10.3744 H         1 UNK         0.0000 
    753 H(2)       18.0492   46.9190   10.3903 H         1 UNK         0.0000 
    754 H(3)       14.1896   46.8595    8.5104 H         1 UNK         0.0000 
    755 H(4)       14.1768   49.3298    8.4961 H         1 UNK         0.0000 
    756 H(5)       15.3196   44.9769    9.2841 H         1 UNK         0.0000 
    757 H(6)       15.0837   51.2874    9.1910 H         1 UNK         0.0000 
    758 H(7)       16.6379   53.7264   10.2352 H         1 UNK         0.0000 
    759 H(8)       15.5629   53.3615    8.9420 H         1 UNK         0.0000 
    760 H(9)       17.2401   53.7810    8.6612 H         1 UNK         0.0000 
    761 O(1)        6.3729   57.5572   15.5017 O.3       1 UNK         0.0000 
    762 O(2)        8.3707   58.7973    9.4577 O.2       1 UNK         0.0000 
    763 N(1)        6.1896   58.8479   10.0886 N.am      1 UNK         0.0000 
    764 C(1)        6.2891   58.4890   11.4515 C.ar      1 UNK         0.0000 
    765 C(2)        7.3712   57.8031   12.0027 C.ar      1 UNK         0.0000 
    766 C(3)        7.3782   57.4944   13.3599 C.ar      1 UNK         0.0000 
    767 C(4)        6.3082   57.8570   14.1738 C.ar      1 UNK         0.0000 
    768 C(5)        5.2126   58.5154   13.6167 C.ar      1 UNK         0.0000 
    769 C(6)        5.2073   58.8283   12.2649 C.ar      1 UNK         0.0000 
    770 C(7)        7.1804   59.0008    9.1951 C.2       1 UNK         0.0000 
    771 C(8)        6.7395   59.4334    7.8224 C.3       1 UNK         0.0000 
    772 H(1)        8.2118   57.5175   11.3824 H         1 UNK         0.0000 
    773 H(2)        8.2291   56.9645   13.7701 H         1 UNK         0.0000 
    774 H(3)        4.3694   58.7855   14.2404 H         1 UNK         0.0000 
    775 H(4)        4.3567   59.3414   11.8334 H         1 UNK         0.0000 
    776 H(5)        5.4995   57.6177   15.9075 H         1 UNK         0.0000 
    777 H(6)        5.2636   59.0927    9.7711 H         1 UNK         0.0000 
    778 H(7)        6.8178   58.6089    7.1624 H         1 UNK         0.0000 
    779 H(8)        5.7427   59.7905    7.8021 H         1 UNK         0.0000 
    780 H(9)        7.4200   60.1565    7.4544 H         1 UNK         0.0000 
    781 O(1)        7.5057   54.1964   12.3169 O.3       1 UNK         0.0000 
    782 O(2)        5.5078   48.0276   12.2011 O.2       1 UNK         0.0000 
    783 N(1)        7.6890   48.6320   12.3888 N.am      1 UNK         0.0000 
    784 C(1)        7.5895   50.0404   12.3376 C.ar      1 UNK         0.0000 
    785 C(2)        6.5074   50.7287   11.7893 C.ar      1 UNK         0.0000 
    786 C(3)        6.5003   52.1205   11.7858 C.ar      1 UNK         0.0000 
    787 C(4)        7.5704   52.8351   12.3181 C.ar      1 UNK         0.0000 
    788 C(5)        8.6660   52.1472   12.8383 C.ar      1 UNK         0.0000 
    789 C(6)        8.6713   50.7596   12.8470 C.ar      1 UNK         0.0000 
    790 C(7)        6.6982   47.7267   12.3420 C.2       1 UNK         0.0000 
    791 C(8)        7.1391   46.2926   12.4630 C.3       1 UNK         0.0000 
    792 H(1)        5.6668   50.1861   11.3746 H         1 UNK         0.0000 
    793 H(2)        5.6495   52.6369   11.3587 H         1 UNK         0.0000 
    794 H(3)        9.5091   52.6964   13.2386 H         1 UNK         0.0000 
    795 H(4)        9.5219   50.2261   13.2530 H         1 UNK         0.0000 
    796 H(5)        8.3791   54.5790   12.4649 H         1 UNK         0.0000 
    797 H(6)        8.6150   48.2685   12.5580 H         1 UNK         0.0000 
    798 H(7)        7.0608   45.8295   11.5138 H         1 UNK         0.0000 
    799 H(8)        8.1358   46.1944   12.8070 H         1 UNK         0.0000 
    800 H(9)        6.4586   45.7749   13.0878 H         1 UNK         0.0000 
    801 O(1)       11.8395   62.4120   13.4097 O.3       1 UNK         0.0000 
    802 O(2)        9.8417   61.1719   19.4537 O.2       1 UNK         0.0000 
    803 N(1)       12.0229   61.1213   18.8228 N.am      1 UNK         0.0000 
    804 C(1)       11.9234   61.4802   17.4599 C.ar      1 UNK         0.0000 
    805 C(2)       10.8413   62.1661   16.9087 C.ar      1 UNK         0.0000 
    806 C(3)       10.8342   62.4748   15.5516 C.ar      1 UNK         0.0000 
    807 C(4)       11.9043   62.1122   14.7376 C.ar      1 UNK         0.0000 
    808 C(5)       12.9999   61.4538   15.2947 C.ar      1 UNK         0.0000 
    809 C(6)       13.0052   61.1409   16.6465 C.ar      1 UNK         0.0000 
    810 C(7)       11.0321   60.9684   19.7163 C.2       1 UNK         0.0000 
    811 C(8)       11.4730   60.5358   21.0890 C.3       1 UNK         0.0000 
    812 H(1)       10.0007   62.4517   17.5290 H         1 UNK         0.0000 
    813 H(2)        9.9834   63.0047   15.1413 H         1 UNK         0.0000 
    814 H(3)       13.8430   61.1837   14.6710 H         1 UNK         0.0000 
    815 H(4)       13.8558   60.6279   17.0780 H         1 UNK         0.0000 
    816 H(5)       12.7130   62.3515   13.0039 H         1 UNK         0.0000 
    817 H(6)       12.9488   60.8765   19.1403 H         1 UNK         0.0000 
    818 H(7)       11.3947   61.3603   21.7490 H         1 UNK         0.0000 
    819 H(8)       12.4697   60.1787   21.1093 H         1 UNK         0.0000 
    820 H(9)       10.7925   59.8127   21.4570 H         1 UNK         0.0000 
    821 O(1)       16.1930   51.0905   16.5945 O.3       1 UNK         0.0000 
    822 O(2)       18.1909   57.2593   16.7103 O.2       1 UNK         0.0000 
    823 N(1)       16.0097   56.6549   16.5226 N.am      1 UNK         0.0000 
    824 C(1)       16.1092   55.2464   16.5738 C.ar      1 UNK         0.0000 
    825 C(2)       17.1913   54.5582   17.1221 C.ar      1 UNK         0.0000 
    826 C(3)       17.1984   53.1664   17.1257 C.ar      1 UNK         0.0000 
    827 C(4)       16.1283   52.4518   16.5933 C.ar      1 UNK         0.0000 
    828 C(5)       15.0327   53.1397   16.0731 C.ar      1 UNK         0.0000 
    829 C(6)       15.0274   54.5273   16.0644 C.ar      1 UNK         0.0000 
    830 C(7)       17.0005   57.5602   16.5694 C.2       1 UNK         0.0000 
    831 C(8)       16.5596   58.9943   16.4484 C.3       1 UNK         0.0000 
    832 H(1)       18.0319   55.1008   17.5368 H         1 UNK         0.0000 
    833 H(2)       18.0492   52.6499   17.5527 H         1 UNK         0.0000 
    834 H(3)       14.1896   52.5905   15.6728 H         1 UNK         0.0000 
    835 H(4)       14.1768   55.0608   15.6585 H         1 UNK         0.0000 
    836 H(5)       15.3196   50.7079   16.4465 H         1 UNK         0.0000 
    837 H(6)       15.0837   57.0183   16.3534 H         1 UNK         0.0000 
    838 H(7)       16.6379   59.4574   17.3976 H         1 UNK         0.0000 
    839 H(8)       15.5629   59.0924   16.1044 H         1 UNK         0.0000 
    840 H(9)       17.2401   59.5120   15.8236 H         1 UNK         0.0000 
    841 O(1)       11.8592   48.6059   22.6641 O.3       1 UNK         0.0000 
    842 O(2)       13.8570   49.8459   16.6201 O.2       1 UNK         0.0000 
    843 N(1)       11.6758   49.8966   17.2510 N.am      1 UNK         0.0000 
    844 C(1)       11.7753   49.5377   18.6139 C.ar      1 UNK         0.0000 
    845 C(2)       12.8574   48.8518   19.1651 C.ar      1 UNK         0.0000 
    846 C(3)       12.8645   48.5430   20.5223 C.ar      1 UNK         0.0000 
    847 C(4)       11.7944   48.9057   21.3362 C.ar      1 UNK         0.0000 
    848 C(5)       10.6988   49.5641   20.7791 C.ar      1 UNK         0.0000 
    849 C(6)       10.6935   49.8769   19.4273 C.ar      1 UNK         0.0000 
    850 C(7)       12.6666   50.0494   16.3575 C.2       1 UNK         0.0000 
    851 C(8)       12.2257   50.4820   14.9848 C.3       1 UNK         0.0000 
    852 H(1)       13.6980   48.5661   18.5448 H         1 UNK         0.0000 
    853 H(2)       13.7153   48.0131   20.9325 H         1 UNK         0.0000 
    854 H(3)        9.8557   49.8341   21.4028 H         1 UNK         0.0000 
    855 H(4)        9.8429   50.3900   18.9958 H         1 UNK         0.0000 
    856 H(5)       10.9857   48.6664   23.0699 H         1 UNK         0.0000 
    857 H(6)       10.7499   50.1413   16.9335 H         1 UNK         0.0000 
    858 H(7)       12.3040   49.6576   14.3248 H         1 UNK         0.0000 
    859 H(8)       11.2290   50.8392   14.9645 H         1 UNK         0.0000 
    860 H(9)       12.9062   51.2051   14.6168 H         1 UNK         0.0000 
    861 O(1)       14.5827   59.9274   19.4793 O.3       1 UNK         0.0000 
    862 O(2)       12.5848   53.7586   19.3635 O.2       1 UNK         0.0000 
    863 N(1)       14.7660   54.3630   19.5512 N.am      1 UNK         0.0000 
    864 C(1)       14.6665   55.7714   19.5000 C.ar      1 UNK         0.0000 
    865 C(2)       13.5844   56.4596   18.9517 C.ar      1 UNK         0.0000 
    866 C(3)       13.5773   57.8514   18.9482 C.ar      1 UNK         0.0000 
    867 C(4)       14.6474   58.5660   19.4805 C.ar      1 UNK         0.0000 
    868 C(5)       15.7430   57.8781   20.0007 C.ar      1 UNK         0.0000 
    869 C(6)       15.7483   56.4906   20.0094 C.ar      1 UNK         0.0000 
    870 C(7)       13.7752   53.4577   19.5044 C.2       1 UNK         0.0000 
    871 C(8)       14.2161   52.0235   19.6254 C.3       1 UNK         0.0000 
    872 H(1)       12.7438   55.9171   18.5370 H         1 UNK         0.0000 
    873 H(2)       12.7265   58.3679   18.5211 H         1 UNK         0.0000 
    874 H(3)       16.5861   58.4274   20.4010 H         1 UNK         0.0000 
    875 H(4)       16.5989   55.9571   20.4154 H         1 UNK         0.0000 
    876 H(5)       15.4561   60.3100   19.6273 H         1 UNK         0.0000 
    877 H(6)       15.6920   53.9995   19.7204 H         1 UNK         0.0000 
    878 H(7)       14.1378   51.5604   18.6762 H         1 UNK         0.0000 
    879 H(8)       15.2128   51.9254   19.9694 H         1 UNK         0.0000 
    880 H(9)       13.5356   51.5059   20.2502 H         1 UNK         0.0000 
    881 O(1)       10.2488   53.4606   20.5721 O.3       1 UNK         0.0000 
    882 O(2)        8.2510   52.2205   26.6161 O.2       1 UNK         0.0000 
    883 N(1)       10.4321   52.1699   25.9852 N.am      1 UNK         0.0000 
    884 C(1)       10.3326   52.5288   24.6223 C.ar      1 UNK         0.0000 
    885 C(2)        9.2505   53.2147   24.0711 C.ar      1 UNK         0.0000 
    886 C(3)        9.2435   53.5235   22.7140 C.ar      1 UNK         0.0000 
    887 C(4)       10.3135   53.1608   21.9000 C.ar      1 UNK         0.0000 
    888 C(5)       11.4091   52.5024   22.4571 C.ar      1 UNK         0.0000 
    889 C(6)       11.4144   52.1896   23.8089 C.ar      1 UNK         0.0000 
    890 C(7)        9.4413   52.0171   26.8787 C.2       1 UNK         0.0000 
    891 C(8)        9.8822   51.5844   28.2514 C.3       1 UNK         0.0000 
    892 H(1)        8.4100   53.5004   24.6914 H         1 UNK         0.0000 
    893 H(2)        8.3926   54.0534   22.3037 H         1 UNK         0.0000 
    894 H(3)       12.2523   52.2323   21.8334 H         1 UNK         0.0000 
    895 H(4)       12.2650   51.6765   24.2404 H         1 UNK         0.0000 
    896 H(5)       11.1222   53.4001   20.1663 H         1 UNK         0.0000 
    897 H(6)       11.3581   51.9252   26.3027 H         1 UNK         0.0000 
    898 H(7)        9.8039   52.4089   28.9114 H         1 UNK         0.0000 
    899 H(8)       10.8790   51.2273   28.2717 H         1 UNK         0.0000 
    900 H(9)        9.2017   50.8613   28.6194 H         1 UNK         0.0000 
    901 O(1)        9.1160   56.8215   23.7569 O.3       1 UNK         0.0000 
    902 O(2)       11.1139   62.9902   23.8727 O.2       1 UNK         0.0000 
    903 N(1)        8.9327   62.3858   23.6850 N.am      1 UNK         0.0000 
    904 C(1)        9.0322   60.9774   23.7362 C.ar      1 UNK         0.0000 
    905 C(2)       10.1143   60.2892   24.2845 C.ar      1 UNK         0.0000 
    906 C(3)       10.1214   58.8974   24.2881 C.ar      1 UNK         0.0000 
    907 C(4)        9.0513   58.1828   23.7557 C.ar      1 UNK         0.0000 
    908 C(5)        7.9557   58.8707   23.2355 C.ar      1 UNK         0.0000 
    909 C(6)        7.9504   60.2582   23.2268 C.ar      1 UNK         0.0000 
    910 C(7)        9.9235   63.2911   23.7318 C.2       1 UNK         0.0000 
    911 C(8)        9.4826   64.7253   23.6108 C.3       1 UNK         0.0000 
    912 H(1)       10.9549   60.8317   24.6992 H         1 UNK         0.0000 
    913 H(2)       10.9722   58.3809   24.7151 H         1 UNK         0.0000 
    914 H(3)        7.1126   58.3214   22.8352 H         1 UNK         0.0000 
    915 H(4)        7.0998   60.7917   22.8209 H         1 UNK         0.0000 
    916 H(5)        8.2426   56.4389   23.6089 H         1 UNK         0.0000 
    917 H(6)        8.0067   62.7493   23.5158 H         1 UNK         0.0000 
    918 H(7)        9.5609   65.1884   24.5600 H         1 UNK         0.0000 
    919 H(8)        8.4859   64.8234   23.2668 H         1 UNK         0.0000 
    920 H(9)       10.1631   65.2429   22.9860 H         1 UNK         0.0000 
    921 O(1)       13.4499   51.8263    8.3393 O.3       1 UNK         0.0000 
    922 O(2)       15.4477   53.0663    2.2953 O.2       1 UNK         0.0000 
    923 N(1)       13.2666   53.1170    2.9262 N.am      1 UNK         0.0000 
    924 C(1)       13.3661   52.7581    4.2891 C.ar      1 UNK         0.0000 
    925 C(2)       14.4482   52.0722    4.8403 C.ar      1 UNK         0.0000 
    926 C(3)       14.4552   51.7634    6.1975 C.ar      1 UNK         0.0000 
    927 C(4)       13.3852   52.1261    7.0114 C.ar      1 UNK         0.0000 
    928 C(5)       12.2896   52.7845    6.4543 C.ar      1 UNK         0.0000 
    929 C(6)       12.2843   53.0973    5.1025 C.ar      1 UNK         0.0000 
    930 C(7)       14.2574   53.2698    2.0327 C.2       1 UNK         0.0000 
    931 C(8)       13.8165   53.7024    0.6600 C.3       1 UNK         0.0000 
    932 H(1)       15.2888   51.7865    4.2200 H         1 UNK         0.0000 
    933 H(2)       15.3061   51.2335    6.6077 H         1 UNK         0.0000 
    934 H(3)       11.4464   53.0545    7.0780 H         1 UNK         0.0000 
    935 H(4)       11.4337   53.6104    4.6710 H         1 UNK         0.0000 
    936 H(5)       12.5765   51.8868    8.7451 H         1 UNK         0.0000 
    937 H(6)       12.3406   53.3617    2.6087 H         1 UNK         0.0000 
    938 H(7)       13.8948   52.8780    0.0000 H         1 UNK         0.0000 
    939 H(8)       12.8197   54.0596    0.6397 H         1 UNK         0.0000 
    940 H(9)       14.4970   54.4255    0.2920 H         1 UNK         0.0000 
    941 O(1)       16.1734   63.1478    5.1545 O.3       1 UNK         0.0000 
    942 O(2)       14.1756   56.9790    5.0387 O.2       1 UNK         0.0000 
    943 N(1)       16.3568   57.5834    5.2264 N.am      1 UNK         0.0000 
    944 C(1)       16.2573   58.9918    5.1752 C.ar      1 UNK         0.0000 
    945 C(2)       15.1752   59.6800    4.6269 C.ar      1 UNK         0.0000 
    946 C(3)       15.1681   61.0718    4.6234 C.ar      1 UNK         0.0000 
    947 C(4)       16.2382   61.7864    5.1557 C.ar      1 UNK         0.0000 
    948 C(5)       17.3338   61.0985    5.6759 C.ar      1 UNK         0.0000 
    949 C(6)       17.3391   59.7110    5.6846 C.ar      1 UNK         0.0000 
    950 C(7)       15.3660   56.6781    5.1796 C.2       1 UNK         0.0000 
    951 C(8)       15.8069   55.2439    5.3006 C.3       1 UNK         0.0000 
    952 H(1)       14.3346   59.1375    4.2122 H         1 UNK         0.0000 
    953 H(2)       14.3173   61.5883    4.1963 H         1 UNK         0.0000 
    954 H(3)       18.1769   61.6478    6.0762 H         1 UNK         0.0000 
    955 H(4)       18.1897   59.1775    6.0906 H         1 UNK         0.0000 
    956 H(5)       17.0469   63.5304    5.3025 H         1 UNK         0.0000 
    957 H(6)       17.2827   57.2199    5.3956 H         1 UNK         0.0000 
    958 H(7)       15.7286   54.7808    4.3514 H         1 UNK         0.0000 
    959 H(8)       16.8036   55.1458    5.6446 H         1 UNK         0.0000 
    960 H(9)       15.1264   54.7263    5.9254 H         1 UNK         0.0000 
    961 O(1)       13.4303   71.3634    6.2473 O.3       1 UNK         0.0000 
    962 O(2)       11.4325   70.1233   12.2913 O.2       1 UNK         0.0000 
    963 N(1)       13.6137   70.0726   11.6604 N.am      1 UNK         0.0000 
    964 C(1)       13.5142   70.4316   10.2975 C.ar      1 UNK         0.0000 
    965 C(2)       12.4321   71.1174    9.7463 C.ar      1 UNK         0.0000 
    966 C(3)       12.4250   71.4262    8.3892 C.ar      1 UNK         0.0000 
    967 C(4)       13.4950   71.0635    7.5752 C.ar      1 UNK         0.0000 
    968 C(5)       14.5907   70.4052    8.1323 C.ar      1 UNK         0.0000 
    969 C(6)       14.5960   70.0923    9.4841 C.ar      1 UNK         0.0000 
    970 C(7)       12.6229   69.9198   12.5539 C.2       1 UNK         0.0000 
    971 C(8)       13.0637   69.4872   13.9266 C.3       1 UNK         0.0000 
    972 H(1)       11.5915   71.4031   10.3666 H         1 UNK         0.0000 
    973 H(2)       11.5742   71.9561    7.9789 H         1 UNK         0.0000 
    974 H(3)       15.4338   70.1351    7.5086 H         1 UNK         0.0000 
    975 H(4)       15.4466   69.5792    9.9156 H         1 UNK         0.0000 
    976 H(5)       14.3038   71.3028    5.8415 H         1 UNK         0.0000 
    977 H(6)       14.5396   69.8279   11.9779 H         1 UNK         0.0000 
    978 H(7)       12.9855   70.3116   14.5866 H         1 UNK         0.0000 
    979 H(8)       14.0605   69.1300   13.9469 H         1 UNK         0.0000 
    980 H(9)       12.3833   68.7641   14.2946 H         1 UNK         0.0000 
    981 O(1)       17.7838   60.0419    9.4321 O.3       1 UNK         0.0000 
    982 O(2)       19.7816   66.2106    9.5479 O.2       1 UNK         0.0000 
    983 N(1)       17.6005   65.6062    9.3602 N.am      1 UNK         0.0000 
    984 C(1)       17.7000   64.1978    9.4114 C.ar      1 UNK         0.0000 
    985 C(2)       18.7821   63.5096    9.9597 C.ar      1 UNK         0.0000 
    986 C(3)       18.7891   62.1178    9.9633 C.ar      1 UNK         0.0000 
    987 C(4)       17.7191   61.4032    9.4309 C.ar      1 UNK         0.0000 
    988 C(5)       16.6235   62.0911    8.9107 C.ar      1 UNK         0.0000 
    989 C(6)       16.6182   63.4786    8.9020 C.ar      1 UNK         0.0000 
    990 C(7)       18.5913   66.5115    9.4070 C.2       1 UNK         0.0000 
    991 C(8)       18.1504   67.9457    9.2860 C.3       1 UNK         0.0000 
    992 H(1)       19.6226   64.0521   10.3744 H         1 UNK         0.0000 
    993 H(2)       19.6400   61.6013   10.3903 H         1 UNK         0.0000 
    994 H(3)       15.7803   61.5418    8.5104 H         1 UNK         0.0000 
    995 H(4)       15.7676   64.0121    8.4961 H         1 UNK         0.0000 
    996 H(5)       16.9104   59.6593    9.2841 H         1 UNK         0.0000 
    997 H(6)       16.6745   65.9697    9.1910 H         1 UNK         0.0000 
    998 H(7)       18.2287   68.4088   10.2352 H         1 UNK         0.0000 
    999 H(8)       17.1536   68.0438    8.9420 H         1 UNK         0.0000 
   1000 H(9)       18.8309   68.4633    8.6612 H         1 UNK         0.0000 
   1001 O(1)        7.9637   72.2396   15.5017 O.3       1 UNK         0.0000 
   1002 O(2)        9.9615   73.4796    9.4577 O.2       1 UNK         0.0000 
   1003 N(1)        7.7804   73.5303   10.0886 N.am      1 UNK         0.0000 
   1004 C(1)        7.8798   73.1714   11.4515 C.ar      1 UNK         0.0000 
   1005 C(2)        8.9620   72.4855   12.0027 C.ar      1 UNK         0.0000 
   1006 C(3)        8.9690   72.1767   13.3599 C.ar      1 UNK         0.0000 
   1007 C(4)        7.8990   72.5394   14.1738 C.ar      1 UNK         0.0000 
   1008 C(5)        6.8034   73.1977   13.6167 C.ar      1 UNK         0.0000 
   1009 C(6)        6.7981   73.5106   12.2649 C.ar      1 UNK         0.0000 
   1010 C(7)        8.7712   73.6831    9.1951 C.2       1 UNK         0.0000 
   1011 C(8)        8.3303   74.1157    7.8224 C.3       1 UNK         0.0000 
   1012 H(1)        9.8025   72.1998   11.3824 H         1 UNK         0.0000 
   1013 H(2)        9.8198   71.6468   13.7701 H         1 UNK         0.0000 
   1014 H(3)        5.9602   73.4678   14.2404 H         1 UNK         0.0000 
   1015 H(4)        5.9475   74.0237   11.8334 H         1 UNK         0.0000 
   1016 H(5)        7.0903   72.3001   15.9075 H         1 UNK         0.0000 
   1017 H(6)        6.8544   73.7750    9.7711 H         1 UNK         0.0000 
   1018 H(7)        8.4086   73.2913    7.1624 H         1 UNK         0.0000 
   1019 H(8)        7.3335   74.4729    7.8021 H         1 UNK         0.0000 
   1020 H(9)        9.0108   74.8388    7.4544 H         1 UNK         0.0000 
   1021 O(1)        9.0964   68.8787   12.3169 O.3       1 UNK         0.0000 
   1022 O(2)        7.0986   62.7099   12.2011 O.2       1 UNK         0.0000 
   1023 N(1)        9.2798   63.3143   12.3888 N.am      1 UNK         0.0000 
   1024 C(1)        9.1803   64.7228   12.3376 C.ar      1 UNK         0.0000 
   1025 C(2)        8.0982   65.4110   11.7893 C.ar      1 UNK         0.0000 
   1026 C(3)        8.0911   66.8028   11.7858 C.ar      1 UNK         0.0000 
   1027 C(4)        9.1612   67.5174   12.3181 C.ar      1 UNK         0.0000 
   1028 C(5)       10.2568   66.8295   12.8383 C.ar      1 UNK         0.0000 
   1029 C(6)       10.2621   65.4419   12.8470 C.ar      1 UNK         0.0000 
   1030 C(7)        8.2890   62.4090   12.3420 C.2       1 UNK         0.0000 
   1031 C(8)        8.7299   60.9749   12.4630 C.3       1 UNK         0.0000 
   1032 H(1)        7.2576   64.8685   11.3746 H         1 UNK         0.0000 
   1033 H(2)        7.2403   67.3193   11.3587 H         1 UNK         0.0000 
   1034 H(3)       11.0999   67.3787   13.2386 H         1 UNK         0.0000 
   1035 H(4)       11.1127   64.9084   13.2530 H         1 UNK         0.0000 
   1036 H(5)        9.9699   69.2613   12.4649 H         1 UNK         0.0000 
   1037 H(6)       10.2057   62.9509   12.5580 H         1 UNK         0.0000 
   1038 H(7)        8.6516   60.5118   11.5138 H         1 UNK         0.0000 
   1039 H(8)        9.7266   60.8768   12.8070 H         1 UNK         0.0000 
   1040 H(9)        8.0494   60.4572   13.0878 H         1 UNK         0.0000 
   1041 O(1)       13.4303   77.0943   13.4097 O.3       1 UNK         0.0000 
   1042 O(2)       11.4325   75.8542   19.4537 O.2       1 UNK         0.0000 
   1043 N(1)       13.6137   75.8036   18.8228 N.am      1 UNK         0.0000 
   1044 C(1)       13.5142   76.1625   17.4599 C.ar      1 UNK         0.0000 
   1045 C(2)       12.4321   76.8484   16.9087 C.ar      1 UNK         0.0000 
   1046 C(3)       12.4250   77.1572   15.5516 C.ar      1 UNK         0.0000 
   1047 C(4)       13.4950   76.7945   14.7376 C.ar      1 UNK         0.0000 
   1048 C(5)       14.5907   76.1361   15.2947 C.ar      1 UNK         0.0000 
   1049 C(6)       14.5960   75.8232   16.6465 C.ar      1 UNK         0.0000 
   1050 C(7)       12.6229   75.6508   19.7163 C.2       1 UNK         0.0000 
   1051 C(8)       13.0637   75.2181   21.0890 C.3       1 UNK         0.0000 
   1052 H(1)       11.5915   77.1341   17.5290 H         1 UNK         0.0000 
   1053 H(2)       11.5742   77.6871   15.1413 H         1 UNK         0.0000 
   1054 H(3)       15.4338   75.8660   14.6710 H         1 UNK         0.0000 
   1055 H(4)       15.4466   75.3102   17.0780 H         1 UNK         0.0000 
   1056 H(5)       14.3038   77.0338   13.0039 H         1 UNK         0.0000 
   1057 H(6)       14.5396   75.5589   19.1403 H         1 UNK         0.0000 
   1058 H(7)       12.9855   76.0426   21.7490 H         1 UNK         0.0000 
   1059 H(8)       14.0605   74.8610   21.1093 H         1 UNK         0.0000 
   1060 H(9)       12.3833   74.4950   21.4570 H         1 UNK         0.0000 
   1061 O(1)       17.7838   65.7728   16.5945 O.3       1 UNK         0.0000 
   1062 O(2)       19.7816   71.9416   16.7103 O.2       1 UNK         0.0000 
   1063 N(1)       17.6005   71.3372   16.5226 N.am      1 UNK         0.0000 
   1064 C(1)       17.7000   69.9288   16.5738 C.ar      1 UNK         0.0000 
   1065 C(2)       18.7821   69.2405   17.1221 C.ar      1 UNK         0.0000 
   1066 C(3)       18.7891   67.8487   17.1257 C.ar      1 UNK         0.0000 
   1067 C(4)       17.7191   67.1341   16.5933 C.ar      1 UNK         0.0000 
   1068 C(5)       16.6235   67.8221   16.0731 C.ar      1 UNK         0.0000 
   1069 C(6)       16.6182   69.2096   16.0644 C.ar      1 UNK         0.0000 
   1070 C(7)       18.5913   72.2425   16.5694 C.2       1 UNK         0.0000 
   1071 C(8)       18.1504   73.6766   16.4484 C.3       1 UNK         0.0000 
   1072 H(1)       19.6226   69.7831   17.5368 H         1 UNK         0.0000 
   1073 H(2)       19.6400   67.3323   17.5527 H         1 UNK         0.0000 
   1074 H(3)       15.7803   67.2728   15.6728 H         1 UNK         0.0000 
   1075 H(4)       15.7676   69.7431   15.6585 H         1 UNK         0.0000 
   1076 H(5)       16.9104   65.3902   16.4465 H         1 UNK         0.0000 
   1077 H(6)       16.6745   71.7007   16.3534 H         1 UNK         0.0000 
   1078 H(7)       18.2287   74.1397   17.3976 H         1 UNK         0.0000 
   1079 H(8)       17.1536   73.7748   16.1044 H         1 UNK         0.0000 
   1080 H(9)       18.8309   74.1943   15.8236 H         1 UNK         0.0000 
   1081 O(1)       13.4499   63.2882   22.6641 O.3       1 UNK         0.0000 
   1082 O(2)       15.4477   64.5283   16.6201 O.2       1 UNK         0.0000 
   1083 N(1)       13.2666   64.5789   17.2510 N.am      1 UNK         0.0000 
   1084 C(1)       13.3661   64.2200   18.6139 C.ar      1 UNK         0.0000 
   1085 C(2)       14.4482   63.5341   19.1651 C.ar      1 UNK         0.0000 
   1086 C(3)       14.4552   63.2253   20.5223 C.ar      1 UNK         0.0000 
   1087 C(4)       13.3852   63.5880   21.3362 C.ar      1 UNK         0.0000 
   1088 C(5)       12.2896   64.2464   20.7791 C.ar      1 UNK         0.0000 
   1089 C(6)       12.2843   64.5593   19.4273 C.ar      1 UNK         0.0000 
   1090 C(7)       14.2574   64.7317   16.3575 C.2       1 UNK         0.0000 
   1091 C(8)       13.8165   65.1644   14.9848 C.3       1 UNK         0.0000 
   1092 H(1)       15.2888   63.2484   18.5448 H         1 UNK         0.0000 
   1093 H(2)       15.3061   62.6954   20.9325 H         1 UNK         0.0000 
   1094 H(3)       11.4464   64.5165   21.4028 H         1 UNK         0.0000 
   1095 H(4)       11.4337   65.0723   18.9958 H         1 UNK         0.0000 
   1096 H(5)       12.5765   63.3487   23.0699 H         1 UNK         0.0000 
   1097 H(6)       12.3406   64.8236   16.9335 H         1 UNK         0.0000 
   1098 H(7)       13.8948   64.3399   14.3248 H         1 UNK         0.0000 
   1099 H(8)       12.8197   65.5215   14.9645 H         1 UNK         0.0000 
   1100 H(9)       14.4970   65.8875   14.6168 H         1 UNK         0.0000 
   1101 O(1)       16.1734   74.6097   19.4793 O.3       1 UNK         0.0000 
   1102 O(2)       14.1756   68.4409   19.3635 O.2       1 UNK         0.0000 
   1103 N(1)       16.3568   69.0453   19.5512 N.am      1 UNK         0.0000 
   1104 C(1)       16.2573   70.4537   19.5000 C.ar      1 UNK         0.0000 
   1105 C(2)       15.1752   71.1420   18.9517 C.ar      1 UNK         0.0000 
   1106 C(3)       15.1681   72.5338   18.9482 C.ar      1 UNK         0.0000 
   1107 C(4)       16.2382   73.2484   19.4805 C.ar      1 UNK         0.0000 
   1108 C(5)       17.3338   72.5605   20.0007 C.ar      1 UNK         0.0000 
   1109 C(6)       17.3391   71.1729   20.0094 C.ar      1 UNK         0.0000 
   1110 C(7)       15.3660   68.1400   19.5044 C.2       1 UNK         0.0000 
   1111 C(8)       15.8069   66.7059   19.6254 C.3       1 UNK         0.0000 
   1112 H(1)       14.3346   70.5994   18.5370 H         1 UNK         0.0000 
   1113 H(2)       14.3173   73.0502   18.5211 H         1 UNK         0.0000 
   1114 H(3)       18.1769   73.1097   20.4010 H         1 UNK         0.0000 
   1115 H(4)       18.1897   70.6394   20.4154 H         1 UNK         0.0000 
   1116 H(5)       17.0469   74.9923   19.6273 H         1 UNK         0.0000 
   1117 H(6)       17.2827   68.6818   19.7204 H         1 UNK         0.0000 
   1118 H(7)       15.7286   66.2428   18.6762 H         1 UNK         0.0000 
   1119 H(8)       16.8036   66.6077   19.9694 H         1 UNK         0.0000 
   1120 H(9)       15.1264   66.1882   20.2502 H         1 UNK         0.0000 
   1121 O(1)       11.8395   68.1430   20.5721 O.3       1 UNK         0.0000 
   1122 O(2)        9.8417   66.9029   26.6161 O.2       1 UNK         0.0000 
   1123 N(1)       12.0229   66.8522   25.9852 N.am      1 UNK         0.0000 
   1124 C(1)       11.9234   67.2112   24.6223 C.ar      1 UNK         0.0000 
   1125 C(2)       10.8413   67.8970   24.0711 C.ar      1 UNK         0.0000 
   1126 C(3)       10.8342   68.2058   22.7140 C.ar      1 UNK         0.0000 
   1127 C(4)       11.9043   67.8431   21.9000 C.ar      1 UNK         0.0000 
   1128 C(5)       12.9999   67.1848   22.4571 C.ar      1 UNK         0.0000 
   1129 C(6)       13.0052   66.8719   23.8089 C.ar      1 UNK         0.0000 
   1130 C(7)       11.0321   66.6994   26.8787 C.2       1 UNK         0.0000 
   1131 C(8)       11.4730   66.2668   28.2514 C.3       1 UNK         0.0000 
   1132 H(1)       10.0007   68.1827   24.6914 H         1 UNK         0.0000 
   1133 H(2)        9.9834   68.7357   22.3037 H         1 UNK         0.0000 
   1134 H(3)       13.8430   66.9147   21.8334 H         1 UNK         0.0000 
   1135 H(4)       13.8558   66.3588   24.2404 H         1 UNK         0.0000 
   1136 H(5)       12.7130   68.0824   20.1663 H         1 UNK         0.0000 
   1137 H(6)       12.9488   66.6075   26.3027 H         1 UNK         0.0000 
   1138 H(7)       11.3947   67.0912   28.9114 H         1 UNK         0.0000 
   1139 H(8)       12.4697   65.9096   28.2717 H         1 UNK         0.0000 
   1140 H(9)       10.7925   65.5437   28.6194 H         1 UNK         0.0000 
   1141 O(1)       10.7068   71.5038   23.7569 O.3       1 UNK         0.0000 
   1142 O(2)       12.7046   77.6726   23.8727 O.2       1 UNK         0.0000 
   1143 N(1)       10.5235   77.0682   23.6850 N.am      1 UNK         0.0000 
   1144 C(1)       10.6230   75.6597   23.7362 C.ar      1 UNK         0.0000 
   1145 C(2)       11.7051   74.9715   24.2845 C.ar      1 UNK         0.0000 
   1146 C(3)       11.7121   73.5797   24.2881 C.ar      1 UNK         0.0000 
   1147 C(4)       10.6421   72.8651   23.7557 C.ar      1 UNK         0.0000 
   1148 C(5)        9.5465   73.5530   23.2355 C.ar      1 UNK         0.0000 
   1149 C(6)        9.5412   74.9406   23.2268 C.ar      1 UNK         0.0000 
   1150 C(7)       11.5143   77.9735   23.7318 C.2       1 UNK         0.0000 
   1151 C(8)       11.0734   79.4076   23.6108 C.3       1 UNK         0.0000 
   1152 H(1)       12.5456   75.5140   24.6992 H         1 UNK         0.0000 
   1153 H(2)       12.5630   73.0632   24.7151 H         1 UNK         0.0000 
   1154 H(3)        8.7033   73.0038   22.8352 H         1 UNK         0.0000 
   1155 H(4)        8.6906   75.4741   22.8209 H         1 UNK         0.0000 
   1156 H(5)        9.8334   71.1212   23.6089 H         1 UNK         0.0000 
   1157 H(6)        9.5975   77.4316   23.5158 H         1 UNK         0.0000 
   1158 H(7)       11.1517   79.8707   24.5600 H         1 UNK         0.0000 
   1159 H(8)       10.0766   79.5057   23.2668 H         1 UNK         0.0000 
   1160 H(9)       11.7539   79.9253   22.9860 H         1 UNK         0.0000 
   1161 O(1)       15.0407   66.5086    8.3393 O.3       1 UNK         0.0000 
   1162 O(2)       17.0385   67.7487    2.2953 O.2       1 UNK         0.0000 
   1163 N(1)       14.8574   67.7993    2.9262 N.am      1 UNK         0.0000 
   1164 C(1)       14.9568   67.4404    4.2891 C.ar      1 UNK         0.0000 
   1165 C(2)       16.0390   66.7545    4.8403 C.ar      1 UNK         0.0000 
   1166 C(3)       16.0460   66.4457    6.1975 C.ar      1 UNK         0.0000 
   1167 C(4)       14.9760   66.8084    7.0114 C.ar      1 UNK         0.0000 
   1168 C(5)       13.8804   67.4668    6.4543 C.ar      1 UNK         0.0000 
   1169 C(6)       13.8751   67.7797    5.1025 C.ar      1 UNK         0.0000 
   1170 C(7)       15.8482   67.9521    2.0327 C.2       1 UNK         0.0000 
   1171 C(8)       15.4073   68.3848    0.6600 C.3       1 UNK         0.0000 
   1172 H(1)       16.8795   66.4688    4.2200 H         1 UNK         0.0000 
   1173 H(2)       16.8968   65.9158    6.6077 H         1 UNK         0.0000 
   1174 H(3)       13.0372   67.7369    7.0780 H         1 UNK         0.0000 
   1175 H(4)       13.0245   68.2927    4.6710 H         1 UNK         0.0000 
   1176 H(5)       14.1673   66.5691    8.7451 H         1 UNK         0.0000 
   1177 H(6)       13.9314   68.0440    2.6087 H         1 UNK         0.0000 
   1178 H(7)       15.4856   67.5603    0.0000 H         1 UNK         0.0000 
   1179 H(8)       14.4105   68.7419    0.6397 H         1 UNK         0.0000 
   1180 H(9)       16.0878   69.1079    0.2920 H         1 UNK         0.0000 
   1181 O(1)       17.7642   77.8301    5.1545 O.3       1 UNK         0.0000 
   1182 O(2)       15.7664   71.6613    5.0387 O.2       1 UNK         0.0000 
   1183 N(1)       17.9476   72.2657    5.2264 N.am      1 UNK         0.0000 
   1184 C(1)       17.8481   73.6741    5.1752 C.ar      1 UNK         0.0000 
   1185 C(2)       16.7659   74.3624    4.6269 C.ar      1 UNK         0.0000 
   1186 C(3)       16.7589   75.7542    4.6234 C.ar      1 UNK         0.0000 
   1187 C(4)       17.8289   76.4688    5.1557 C.ar      1 UNK         0.0000 
   1188 C(5)       18.9245   75.7809    5.6759 C.ar      1 UNK         0.0000 
   1189 C(6)       18.9299   74.3933    5.6846 C.ar      1 UNK         0.0000 
   1190 C(7)       16.9568   71.3604    5.1796 C.2       1 UNK         0.0000 
   1191 C(8)       17.3976   69.9263    5.3006 C.3       1 UNK         0.0000 
   1192 H(1)       15.9254   73.8198    4.2122 H         1 UNK         0.0000 
   1193 H(2)       15.9081   76.2706    4.1963 H         1 UNK         0.0000 
   1194 H(3)       19.7677   76.3301    6.0762 H         1 UNK         0.0000 
   1195 H(4)       19.7805   73.8598    6.0906 H         1 UNK         0.0000 
   1196 H(5)       18.6377   78.2127    5.3025 H         1 UNK         0.0000 
   1197 H(6)       18.8735   71.9022    5.3956 H         1 UNK         0.0000 
   1198 H(7)       17.3194   69.4632    4.3514 H         1 UNK         0.0000 
   1199 H(8)       18.3944   69.8281    5.6446 H         1 UNK         0.0000 
   1200 H(9)       16.7172   69.4086    5.9254 H         1 UNK         0.0000 
   1201 O(1)       15.0211   86.0457    6.2473 O.3       1 UNK         0.0000 
   1202 O(2)       13.0233   84.8056   12.2913 O.2       1 UNK         0.0000 
   1203 N(1)       15.2044   84.7550   11.6604 N.am      1 UNK         0.0000 
   1204 C(1)       15.1050   85.1139   10.2975 C.ar      1 UNK         0.0000 
   1205 C(2)       14.0228   85.7998    9.7463 C.ar      1 UNK         0.0000 
   1206 C(3)       14.0158   86.1085    8.3892 C.ar      1 UNK         0.0000 
   1207 C(4)       15.0858   85.7459    7.5752 C.ar      1 UNK         0.0000 
   1208 C(5)       16.1814   85.0875    8.1323 C.ar      1 UNK         0.0000 
   1209 C(6)       16.1867   84.7746    9.4841 C.ar      1 UNK         0.0000 
   1210 C(7)       14.2137   84.6021   12.5539 C.2       1 UNK         0.0000 
   1211 C(8)       14.6545   84.1695   13.9266 C.3       1 UNK         0.0000 
   1212 H(1)       13.1823   86.0854   10.3666 H         1 UNK         0.0000 
   1213 H(2)       13.1650   86.6384    7.9789 H         1 UNK         0.0000 
   1214 H(3)       17.0246   84.8174    7.5086 H         1 UNK         0.0000 
   1215 H(4)       17.0374   84.2615    9.9156 H         1 UNK         0.0000 
   1216 H(5)       15.8946   85.9852    5.8415 H         1 UNK         0.0000 
   1217 H(6)       16.1304   84.5102   11.9779 H         1 UNK         0.0000 
   1218 H(7)       14.5763   84.9940   14.5866 H         1 UNK         0.0000 
   1219 H(8)       15.6513   83.8124   13.9469 H         1 UNK         0.0000 
   1220 H(9)       13.9740   83.4464   14.2946 H         1 UNK         0.0000 
   1221 O(1)       19.3746   74.7242    9.4321 O.3       1 UNK         0.0000 
   1222 O(2)       21.3724   80.8930    9.5479 O.2       1 UNK         0.0000 
   1223 N(1)       19.1913   80.2886    9.3602 N.am      1 UNK         0.0000 
   1224 C(1)       19.2907   78.8801    9.4114 C.ar      1 UNK         0.0000 
   1225 C(2)       20.3729   78.1919    9.9597 C.ar      1 UNK         0.0000 
   1226 C(3)       20.3799   76.8001    9.9633 C.ar      1 UNK         0.0000 
   1227 C(4)       19.3099   76.0855    9.4309 C.ar      1 UNK         0.0000 
   1228 C(5)       18.2143   76.7734    8.9107 C.ar      1 UNK         0.0000 
   1229 C(6)       18.2090   78.1610    8.9020 C.ar      1 UNK         0.0000 
   1230 C(7)       20.1821   81.1939    9.4070 C.2       1 UNK         0.0000 
   1231 C(8)       19.7412   82.6280    9.2860 C.3       1 UNK         0.0000 
   1232 H(1)       21.2134   78.7344   10.3744 H         1 UNK         0.0000 
   1233 H(2)       21.2307   76.2836   10.3903 H         1 UNK         0.0000 
   1234 H(3)       17.3711   76.2242    8.5104 H         1 UNK         0.0000 
   1235 H(4)       17.3584   78.6945    8.4961 H         1 UNK         0.0000 
   1236 H(5)       18.5012   74.3416    9.2841 H         1 UNK         0.0000 
   1237 H(6)       18.2653   80.6520    9.1910 H         1 UNK         0.0000 
   1238 H(7)       19.8195   83.0911   10.2352 H         1 UNK         0.0000 
   1239 H(8)       18.7444   82.7261    8.9420 H         1 UNK         0.0000 
   1240 H(9)       20.4217   83.1457    8.6612 H         1 UNK         0.0000 
   1241 O(1)        9.5545   86.9219   15.5017 O.3       1 UNK         0.0000 
   1242 O(2)       11.5523   88.1620    9.4577 O.2       1 UNK         0.0000 
   1243 N(1)        9.3712   88.2126   10.0886 N.am      1 UNK         0.0000 
   1244 C(1)        9.4706   87.8537   11.4515 C.ar      1 UNK         0.0000 
   1245 C(2)       10.5528   87.1678   12.0027 C.ar      1 UNK         0.0000 
   1246 C(3)       10.5598   86.8590   13.3599 C.ar      1 UNK         0.0000 
   1247 C(4)        9.4898   87.2217   14.1738 C.ar      1 UNK         0.0000 
   1248 C(5)        8.3942   87.8801   13.6167 C.ar      1 UNK         0.0000 
   1249 C(6)        8.3889   88.1930   12.2649 C.ar      1 UNK         0.0000 
   1250 C(7)       10.3619   88.3654    9.1951 C.2       1 UNK         0.0000 
   1251 C(8)        9.9211   88.7981    7.8224 C.3       1 UNK         0.0000 
   1252 H(1)       11.3933   86.8821   11.3824 H         1 UNK         0.0000 
   1253 H(2)       11.4106   86.3291   13.7701 H         1 UNK         0.0000 
   1254 H(3)        7.5510   88.1502   14.2404 H         1 UNK         0.0000 
   1255 H(4)        7.5383   88.7060   11.8334 H         1 UNK         0.0000 
   1256 H(5)        8.6811   86.9824   15.9075 H         1 UNK         0.0000 
   1257 H(6)        8.4452   88.4573    9.7711 H         1 UNK         0.0000 
   1258 H(7)        9.9994   87.9736    7.1624 H         1 UNK         0.0000 
   1259 H(8)        8.9243   89.1552    7.8021 H         1 UNK         0.0000 
   1260 H(9)       10.6016   89.5212    7.4544 H         1 UNK         0.0000 
   1261 O(1)       10.6872   83.5611   12.3169 O.3       1 UNK         0.0000 
   1262 O(2)        8.6894   77.3923   12.2011 O.2       1 UNK         0.0000 
   1263 N(1)       10.8706   77.9967   12.3888 N.am      1 UNK         0.0000 
   1264 C(1)       10.7711   79.4051   12.3376 C.ar      1 UNK         0.0000 
   1265 C(2)        9.6889   80.0933   11.7893 C.ar      1 UNK         0.0000 
   1266 C(3)        9.6819   81.4851   11.7858 C.ar      1 UNK         0.0000 
   1267 C(4)       10.7519   82.1997   12.3181 C.ar      1 UNK         0.0000 
   1268 C(5)       11.8475   81.5118   12.8383 C.ar      1 UNK         0.0000 
   1269 C(6)       11.8529   80.1243   12.8470 C.ar      1 UNK         0.0000 
   1270 C(7)        9.8798   77.0914   12.3420 C.2       1 UNK         0.0000 
   1271 C(8)       10.3206   75.6572   12.4630 C.3       1 UNK         0.0000 
   1272 H(1)        8.8484   79.5508   11.3746 H         1 UNK         0.0000 
   1273 H(2)        8.8311   82.0016   11.3587 H         1 UNK         0.0000 
   1274 H(3)       12.6907   82.0611   13.2386 H         1 UNK         0.0000 
   1275 H(4)       12.7035   79.5908   13.2530 H         1 UNK         0.0000 
   1276 H(5)       11.5607   83.9437   12.4649 H         1 UNK         0.0000 
   1277 H(6)       11.7965   77.6332   12.5580 H         1 UNK         0.0000 
   1278 H(7)       10.2424   75.1941   11.5138 H         1 UNK         0.0000 
   1279 H(8)       11.3174   75.5591   12.8070 H         1 UNK         0.0000 
   1280 H(9)        9.6402   75.1396   13.0878 H         1 UNK         0.0000 
   1281 O(1)       15.0211   91.7766   13.4097 O.3       1 UNK         0.0000 
   1282 O(2)       13.0233   90.5366   19.4537 O.2       1 UNK         0.0000 
   1283 N(1)       15.2044   90.4859   18.8228 N.am      1 UNK         0.0000 
   1284 C(1)       15.1050   90.8448   17.4599 C.ar      1 UNK         0.0000 
   1285 C(2)       14.0228   91.5307   16.9087 C.ar      1 UNK         0.0000 
   1286 C(3)       14.0158   91.8395   15.5516 C.ar      1 UNK         0.0000 
   1287 C(4)       15.0858   91.4768   14.7376 C.ar      1 UNK         0.0000 
   1288 C(5)       16.1814   90.8185   15.2947 C.ar      1 UNK         0.0000 
   1289 C(6)       16.1867   90.5056   16.6465 C.ar      1 UNK         0.0000 
   1290 C(7)       14.2137   90.3331   19.7163 C.2       1 UNK         0.0000 
   1291 C(8)       14.6545   89.9005   21.0890 C.3       1 UNK         0.0000 
   1292 H(1)       13.1823   91.8164   17.5290 H         1 UNK         0.0000 
   1293 H(2)       13.1650   92.3694   15.1413 H         1 UNK         0.0000 
   1294 H(3)       17.0246   90.5484   14.6710 H         1 UNK         0.0000 
   1295 H(4)       17.0374   89.9925   17.0780 H         1 UNK         0.0000 
   1296 H(5)       15.8946   91.7161   13.0039 H         1 UNK         0.0000 
   1297 H(6)       16.1304   90.2412   19.1403 H         1 UNK         0.0000 
   1298 H(7)       14.5763   90.7249   21.7490 H         1 UNK         0.0000 
   1299 H(8)       15.6513   89.5433   21.1093 H         1 UNK         0.0000 
   1300 H(9)       13.9740   89.1774   21.4570 H         1 UNK         0.0000 
   1301 O(1)       19.3746   80.4552   16.5945 O.3       1 UNK         0.0000 
   1302 O(2)       21.3724   86.6239   16.7103 O.2       1 UNK         0.0000 
   1303 N(1)       19.1913   86.0195   16.5226 N.am      1 UNK         0.0000 
   1304 C(1)       19.2907   84.6111   16.5738 C.ar      1 UNK         0.0000 
   1305 C(2)       20.3729   83.9229   17.1221 C.ar      1 UNK         0.0000 
   1306 C(3)       20.3799   82.5311   17.1257 C.ar      1 UNK         0.0000 
   1307 C(4)       19.3099   81.8165   16.5933 C.ar      1 UNK         0.0000 
   1308 C(5)       18.2143   82.5044   16.0731 C.ar      1 UNK         0.0000 
   1309 C(6)       18.2090   83.8919   16.0644 C.ar      1 UNK         0.0000 
   1310 C(7)       20.1821   86.9248   16.5694 C.2       1 UNK         0.0000 
   1311 C(8)       19.7412   88.3590   16.4484 C.3       1 UNK         0.0000 
   1312 H(1)       21.2134   84.4654   17.5368 H         1 UNK         0.0000 
   1313 H(2)       21.2307   82.0146   17.5527 H         1 UNK         0.0000 
   1314 H(3)       17.3711   81.9551   15.6728 H         1 UNK         0.0000 
   1315 H(4)       17.3584   84.4254   15.6585 H         1 UNK         0.0000 
   1316 H(5)       18.5012   80.0725   16.4465 H         1 UNK         0.0000 
   1317 H(6)       18.2653   86.3830   16.3534 H         1 UNK         0.0000 
   1318 H(7)       19.8195   88.8221   17.3976 H         1 UNK         0.0000 
   1319 H(8)       18.7444   88.4571   16.1044 H         1 UNK         0.0000 
   1320 H(9)       20.4217   88.8766   15.8236 H         1 UNK         0.0000 
   1321 O(1)       15.0407   77.9705   22.6641 O.3       1 UNK         0.0000 
   1322 O(2)       17.0385   79.2106   16.6201 O.2       1 UNK         0.0000 
   1323 N(1)       14.8574   79.2612   17.2510 N.am      1 UNK         0.0000 
   1324 C(1)       14.9568   78.9023   18.6139 C.ar      1 UNK         0.0000 
   1325 C(2)       16.0390   78.2164   19.1651 C.ar      1 UNK         0.0000 
   1326 C(3)       16.0460   77.9077   20.5223 C.ar      1 UNK         0.0000 
   1327 C(4)       14.9760   78.2703   21.3362 C.ar      1 UNK         0.0000 
   1328 C(5)       13.8804   78.9287   20.7791 C.ar      1 UNK         0.0000 
   1329 C(6)       13.8751   79.2416   19.4273 C.ar      1 UNK         0.0000 
   1330 C(7)       15.8482   79.4141   16.3575 C.2       1 UNK         0.0000 
   1331 C(8)       15.4073   79.8467   14.9848 C.3       1 UNK         0.0000 
   1332 H(1)       16.8795   77.9308   18.5448 H         1 UNK         0.0000 
   1333 H(2)       16.8968   77.3778   20.9325 H         1 UNK         0.0000 
   1334 H(3)       13.0372   79.1988   21.4028 H         1 UNK         0.0000 
   1335 H(4)       13.0245   79.7547   18.9958 H         1 UNK         0.0000 
   1336 H(5)       14.1673   78.0310   23.0699 H         1 UNK         0.0000 
   1337 H(6)       13.9314   79.5060   16.9335 H         1 UNK         0.0000 
   1338 H(7)       15.4856   79.0222   14.3248 H         1 UNK         0.0000 
   1339 H(8)       14.4105   80.2038   14.9645 H         1 UNK         0.0000 
   1340 H(9)       16.0878   80.5698   14.6168 H         1 UNK         0.0000 
   1341 O(1)       17.7642   89.2920   19.4793 O.3       1 UNK         0.0000 
   1342 O(2)       15.7664   83.1232   19.3635 O.2       1 UNK         0.0000 
   1343 N(1)       17.9476   83.7276   19.5512 N.am      1 UNK         0.0000 
   1344 C(1)       17.8481   85.1361   19.5000 C.ar      1 UNK         0.0000 
   1345 C(2)       16.7659   85.8243   18.9517 C.ar      1 UNK         0.0000 
   1346 C(3)       16.7589   87.2161   18.9482 C.ar      1 UNK         0.0000 
   1347 C(4)       17.8289   87.9307   19.4805 C.ar      1 UNK         0.0000 
   1348 C(5)       18.9245   87.2428   20.0007 C.ar      1 UNK         0.0000 
   1349 C(6)       18.9299   85.8552   20.0094 C.ar      1 UNK         0.0000 
   1350 C(7)       16.9568   82.8223   19.5044 C.2       1 UNK         0.0000 
   1351 C(8)       17.3976   81.3882   19.6254 C.3       1 UNK         0.0000 
   1352 H(1)       15.9254   85.2818   18.5370 H         1 UNK         0.0000 
   1353 H(2)       15.9081   87.7326   18.5211 H         1 UNK         0.0000 
   1354 H(3)       19.7677   87.7920   20.4010 H         1 UNK         0.0000 
   1355 H(4)       19.7805   85.3217   20.4154 H         1 UNK         0.0000 
   1356 H(5)       18.6377   89.6746   19.6273 H         1 UNK         0.0000 
   1357 H(6)       18.8735   83.3642   19.7204 H         1 UNK         0.0000 
   1358 H(7)       17.3194   80.9251   18.6762 H         1 UNK         0.0000 
   1359 H(8)       18.3944   81.2901   19.9694 H         1 UNK         0.0000 
   1360 H(9)       16.7172   80.8705   20.2502 H         1 UNK         0.0000 
   1361 O(1)       13.4303   82.8253   20.5721 O.3       1 UNK         0.0000 
   1362 O(2)       11.4325   81.5852   26.6161 O.2       1 UNK         0.0000 
   1363 N(1)       13.6137   81.5346   25.9852 N.am      1 UNK         0.0000 
   1364 C(1)       13.5142   81.8935   24.6223 C.ar      1 UNK         0.0000 
   1365 C(2)       12.4321   82.5794   24.0711 C.ar      1 UNK         0.0000 
   1366 C(3)       12.4250   82.8881   22.7140 C.ar      1 UNK         0.0000 
   1367 C(4)       13.4950   82.5255   21.9000 C.ar      1 UNK         0.0000 
   1368 C(5)       14.5907   81.8671   22.4571 C.ar      1 UNK         0.0000 
   1369 C(6)       14.5960   81.5542   23.8089 C.ar      1 UNK         0.0000 
   1370 C(7)       12.6229   81.3817   26.8787 C.2       1 UNK         0.0000 
   1371 C(8)       13.0637   80.9491   28.2514 C.3       1 UNK         0.0000 
   1372 H(1)       11.5915   82.8650   24.6914 H         1 UNK         0.0000 
   1373 H(2)       11.5742   83.4180   22.3037 H         1 UNK         0.0000 
   1374 H(3)       15.4338   81.5970   21.8334 H         1 UNK         0.0000 
   1375 H(4)       15.4466   81.0412   24.2404 H         1 UNK         0.0000 
   1376 H(5)       14.3038   82.7648   20.1663 H         1 UNK         0.0000 
   1377 H(6)       14.5396   81.2898   26.3027 H         1 UNK         0.0000 
   1378 H(7)       12.9855   81.7736   28.9114 H         1 UNK         0.0000 
   1379 H(8)       14.0605   80.5920   28.2717 H         1 UNK         0.0000 
   1380 H(9)       12.3833   80.2260   28.6194 H         1 UNK         0.0000 
   1381 O(1)       12.2976   86.1861   23.7569 O.3       1 UNK         0.0000 
   1382 O(2)       14.2954   92.3549   23.8727 O.2       1 UNK         0.0000 
   1383 N(1)       12.1143   91.7505   23.6850 N.am      1 UNK         0.0000 
   1384 C(1)       12.2137   90.3421   23.7362 C.ar      1 UNK         0.0000 
   1385 C(2)       13.2959   89.6538   24.2845 C.ar      1 UNK         0.0000 
   1386 C(3)       13.3029   88.2620   24.2881 C.ar      1 UNK         0.0000 
   1387 C(4)       12.2329   87.5474   23.7557 C.ar      1 UNK         0.0000 
   1388 C(5)       11.1373   88.2353   23.2355 C.ar      1 UNK         0.0000 
   1389 C(6)       11.1320   89.6229   23.2268 C.ar      1 UNK         0.0000 
   1390 C(7)       13.1051   92.6558   23.7318 C.2       1 UNK         0.0000 
   1391 C(8)       12.6642   94.0899   23.6108 C.3       1 UNK         0.0000 
   1392 H(1)       14.1364   90.1964   24.6992 H         1 UNK         0.0000 
   1393 H(2)       14.1537   87.7456   24.7151 H         1 UNK         0.0000 
   1394 H(3)       10.2941   87.6861   22.8352 H         1 UNK         0.0000 
   1395 H(4)       10.2814   90.1564   22.8209 H         1 UNK         0.0000 
   1396 H(5)       11.4242   85.8035   23.6089 H         1 UNK         0.0000 
   1397 H(6)       11.1883   92.1140   23.5158 H         1 UNK         0.0000 
   1398 H(7)       12.7425   94.5530   24.5600 H         1 UNK         0.0000 
   1399 H(8)       11.6674   94.1881   23.2668 H         1 UNK         0.0000 
   1400 H(9)       13.3447   94.6076   22.9860 H         1 UNK         0.0000 
   1401 O(1)       16.6315   81.1909    8.3393 O.3       1 UNK         0.0000 
   1402 O(2)       18.6293   82.4310    2.2953 O.2       1 UNK         0.0000 
   1403 N(1)       16.4482   82.4816    2.9262 N.am      1 UNK         0.0000 
   1404 C(1)       16.5476   82.1227    4.2891 C.ar      1 UNK         0.0000 
   1405 C(2)       17.6298   81.4368    4.8403 C.ar      1 UNK         0.0000 
   1406 C(3)       17.6368   81.1281    6.1975 C.ar      1 UNK         0.0000 
   1407 C(4)       16.5668   81.4907    7.0114 C.ar      1 UNK         0.0000 
   1408 C(5)       15.4712   82.1491    6.4543 C.ar      1 UNK         0.0000 
   1409 C(6)       15.4659   82.4620    5.1025 C.ar      1 UNK         0.0000 
   1410 C(7)       17.4389   82.6345    2.0327 C.2       1 UNK         0.0000 
   1411 C(8)       16.9981   83.0671    0.6600 C.3       1 UNK         0.0000 
   1412 H(1)       18.4703   81.1512    4.2200 H         1 UNK         0.0000 
   1413 H(2)       18.4876   80.5982    6.6077 H         1 UNK         0.0000 
   1414 H(3)       14.6280   82.4192    7.0780 H         1 UNK         0.0000 
   1415 H(4)       14.6153   82.9751    4.6710 H         1 UNK         0.0000 
   1416 H(5)       15.7581   81.2514    8.7451 H         1 UNK         0.0000 
   1417 H(6)       15.5222   82.7264    2.6087 H         1 UNK         0.0000 
   1418 H(7)       17.0764   82.2426    0.0000 H         1 UNK         0.0000 
   1419 H(8)       16.0013   83.4242    0.6397 H         1 UNK         0.0000 
   1420 H(9)       17.6786   83.7902    0.2920 H         1 UNK         0.0000 
   1421 O(1)       19.3550   92.5124    5.1545 O.3       1 UNK         0.0000 
   1422 O(2)       17.3572   86.3436    5.0387 O.2       1 UNK         0.0000 
   1423 N(1)       19.5383   86.9480    5.2264 N.am      1 UNK         0.0000 
   1424 C(1)       19.4389   88.3565    5.1752 C.ar      1 UNK         0.0000 
   1425 C(2)       18.3567   89.0447    4.6269 C.ar      1 UNK         0.0000 
   1426 C(3)       18.3497   90.4365    4.6234 C.ar      1 UNK         0.0000 
   1427 C(4)       19.4197   91.1511    5.1557 C.ar      1 UNK         0.0000 
   1428 C(5)       20.5153   90.4632    5.6759 C.ar      1 UNK         0.0000 
   1429 C(6)       20.5206   89.0756    5.6846 C.ar      1 UNK         0.0000 
   1430 C(7)       18.5476   86.0427    5.1796 C.2       1 UNK         0.0000 
   1431 C(8)       18.9884   84.6086    5.3006 C.3       1 UNK         0.0000 
   1432 H(1)       17.5162   88.5022    4.2122 H         1 UNK         0.0000 
   1433 H(2)       17.4989   90.9530    4.1963 H         1 UNK         0.0000 
   1434 H(3)       21.3585   91.0124    6.0762 H         1 UNK         0.0000 
   1435 H(4)       21.3713   88.5421    6.0906 H         1 UNK         0.0000 
   1436 H(5)       20.2284   92.8950    5.3025 H         1 UNK         0.0000 
   1437 H(6)       20.4643   86.5846    5.3956 H         1 UNK         0.0000 
   1438 H(7)       18.9102   84.1455    4.3514 H         1 UNK         0.0000 
   1439 H(8)       19.9852   84.5105    5.6446 H         1 UNK         0.0000 
   1440 H(9)       18.3079   84.0909    5.9254 H         1 UNK         0.0000 
   1441 O(1)       16.6119  100.7280    6.2473 O.3       1 UNK         0.0000 
   1442 O(2)       14.6141   99.4879   12.2913 O.2       1 UNK         0.0000 
   1443 N(1)       16.7952   99.4373   11.6604 N.am      1 UNK         0.0000 
   1444 C(1)       16.6958   99.7962   10.2975 C.ar      1 UNK         0.0000 
   1445 C(2)       15.6136  100.4821    9.7463 C.ar      1 UNK         0.0000 
   1446 C(3)       15.6066  100.7909    8.3892 C.ar      1 UNK         0.0000 
   1447 C(4)       16.6766  100.4282    7.5752 C.ar      1 UNK         0.0000 
   1448 C(5)       17.7722   99.7698    8.1323 C.ar      1 UNK         0.0000 
   1449 C(6)       17.7775   99.4569    9.4841 C.ar      1 UNK         0.0000 
   1450 C(7)       15.8045   99.2845   12.5539 C.2       1 UNK         0.0000 
   1451 C(8)       16.2453   98.8518   13.9266 C.3       1 UNK         0.0000 
   1452 H(1)       14.7731  100.7678   10.3666 H         1 UNK         0.0000 
   1453 H(2)       14.7558  101.3208    7.9789 H         1 UNK         0.0000 
   1454 H(3)       18.6154   99.4997    7.5086 H         1 UNK         0.0000 
   1455 H(4)       18.6281   98.9439    9.9156 H         1 UNK         0.0000 
   1456 H(5)       17.4853  100.6675    5.8415 H         1 UNK         0.0000 
   1457 H(6)       17.7212   99.1926   11.9779 H         1 UNK         0.0000 
   1458 H(7)       16.1670   99.6763   14.5866 H         1 UNK         0.0000 
   1459 H(8)       17.2421   98.4947   13.9469 H         1 UNK         0.0000 
   1460 H(9)       15.5648   98.1287   14.2946 H         1 UNK         0.0000 
   1461 O(1)       20.9654   89.4065    9.4321 O.3       1 UNK         0.0000 
   1462 O(2)       22.9632   95.5753    9.5479 O.2       1 UNK         0.0000 
   1463 N(1)       20.7821   94.9709    9.3602 N.am      1 UNK         0.0000 
   1464 C(1)       20.8815   93.5625    9.4114 C.ar      1 UNK         0.0000 
   1465 C(2)       21.9637   92.8742    9.9597 C.ar      1 UNK         0.0000 
   1466 C(3)       21.9707   91.4824    9.9633 C.ar      1 UNK         0.0000 
   1467 C(4)       20.9007   90.7678    9.4309 C.ar      1 UNK         0.0000 
   1468 C(5)       19.8051   91.4557    8.9107 C.ar      1 UNK         0.0000 
   1469 C(6)       19.7998   92.8433    8.9020 C.ar      1 UNK         0.0000 
   1470 C(7)       21.7728   95.8762    9.4070 C.2       1 UNK         0.0000 
   1471 C(8)       21.3320   97.3103    9.2860 C.3       1 UNK         0.0000 
   1472 H(1)       22.8042   93.4168   10.3744 H         1 UNK         0.0000 
   1473 H(2)       22.8215   90.9660   10.3903 H         1 UNK         0.0000 
   1474 H(3)       18.9619   90.9065    8.5104 H         1 UNK         0.0000 
   1475 H(4)       18.9491   93.3768    8.4961 H         1 UNK         0.0000 
   1476 H(5)       20.0920   89.0239    9.2841 H         1 UNK         0.0000 
   1477 H(6)       19.8561   95.3344    9.1910 H         1 UNK         0.0000 
   1478 H(7)       21.4102   97.7734   10.2352 H         1 UNK         0.0000 
   1479 H(8)       20.3352   97.4085    8.9420 H         1 UNK         0.0000 
   1480 H(9)       22.0125   97.8280    8.6612 H         1 UNK         0.0000 
   1481 O(1)       11.1453  101.6042   15.5017 O.3       1 UNK         0.0000 
   1482 O(2)       13.1431  102.8443    9.4577 O.2       1 UNK         0.0000 
   1483 N(1)       10.9620  102.8949   10.0886 N.am      1 UNK         0.0000 
   1484 C(1)       11.0614  102.5360   11.4515 C.ar      1 UNK         0.0000 
   1485 C(2)       12.1436  101.8501   12.0027 C.ar      1 UNK         0.0000 
   1486 C(3)       12.1506  101.5414   13.3599 C.ar      1 UNK         0.0000 
   1487 C(4)       11.0806  101.9040   14.1738 C.ar      1 UNK         0.0000 
   1488 C(5)        9.9850  102.5624   13.6167 C.ar      1 UNK         0.0000 
   1489 C(6)        9.9797  102.8753   12.2649 C.ar      1 UNK         0.0000 
   1490 C(7)       11.9527  103.0478    9.1951 C.2       1 UNK         0.0000 
   1491 C(8)       11.5119  103.4804    7.8224 C.3       1 UNK         0.0000 
   1492 H(1)       12.9841  101.5645   11.3824 H         1 UNK         0.0000 
   1493 H(2)       13.0014  101.0115   13.7701 H         1 UNK         0.0000 
   1494 H(3)        9.1418  102.8325   14.2404 H         1 UNK         0.0000 
   1495 H(4)        9.1290  103.3883   11.8334 H         1 UNK         0.0000 
   1496 H(5)       10.2718  101.6647   15.9075 H         1 UNK         0.0000 
   1497 H(6)       10.0360  103.1397    9.7711 H         1 UNK         0.0000 
   1498 H(7)       11.5901  102.6559    7.1624 H         1 UNK         0.0000 
   1499 H(8)       10.5151  103.8375    7.8021 H         1 UNK         0.0000 
   1500 H(9)       12.1924  104.2035    7.4544 H         1 UNK         0.0000 
   1501 O(1)       12.2780   98.2434   12.3169 O.3       1 UNK         0.0000 
   1502 O(2)       10.2802   92.0746   12.2011 O.2       1 UNK         0.0000 
   1503 N(1)       12.4613   92.6790   12.3888 N.am      1 UNK         0.0000 
   1504 C(1)       12.3619   94.0874   12.3376 C.ar      1 UNK         0.0000 
   1505 C(2)       11.2797   94.7757   11.7893 C.ar      1 UNK         0.0000 
   1506 C(3)       11.2727   96.1675   11.7858 C.ar      1 UNK         0.0000 
   1507 C(4)       12.3427   96.8821   12.3181 C.ar      1 UNK         0.0000 
   1508 C(5)       13.4383   96.1941   12.8383 C.ar      1 UNK         0.0000 
   1509 C(6)       13.4436   94.8066   12.8470 C.ar      1 UNK         0.0000 
   1510 C(7)       11.4706   91.7737   12.3420 C.2       1 UNK         0.0000 
   1511 C(8)       11.9114   90.3396   12.4630 C.3       1 UNK         0.0000 
   1512 H(1)       10.4392   94.2331   11.3746 H         1 UNK         0.0000 
   1513 H(2)       10.4219   96.6839   11.3587 H         1 UNK         0.0000 
   1514 H(3)       14.2815   96.7434   13.2386 H         1 UNK         0.0000 
   1515 H(4)       14.2943   94.2731   13.2530 H         1 UNK         0.0000 
   1516 H(5)       13.1514   98.6260   12.4649 H         1 UNK         0.0000 
   1517 H(6)       13.3873   92.3155   12.5580 H         1 UNK         0.0000 
   1518 H(7)       11.8332   89.8765   11.5138 H         1 UNK         0.0000 
   1519 H(8)       12.9082   90.2414   12.8070 H         1 UNK         0.0000 
   1520 H(9)       11.2309   89.8219   13.0878 H         1 UNK         0.0000 
   1521 O(1)       16.6119  106.4590   13.4097 O.3       1 UNK         0.0000 
   1522 O(2)       14.6141  105.2189   19.4537 O.2       1 UNK         0.0000 
   1523 N(1)       16.7952  105.1683   18.8228 N.am      1 UNK         0.0000 
   1524 C(1)       16.6958  105.5272   17.4599 C.ar      1 UNK         0.0000 
   1525 C(2)       15.6136  106.2131   16.9087 C.ar      1 UNK         0.0000 
   1526 C(3)       15.6066  106.5218   15.5516 C.ar      1 UNK         0.0000 
   1527 C(4)       16.6766  106.1592   14.7376 C.ar      1 UNK         0.0000 
   1528 C(5)       17.7722  105.5008   15.2947 C.ar      1 UNK         0.0000 
   1529 C(6)       17.7775  105.1879   16.6465 C.ar      1 UNK         0.0000 
   1530 C(7)       15.8045  105.0154   19.7163 C.2       1 UNK         0.0000 
   1531 C(8)       16.2453  104.5828   21.0890 C.3       1 UNK         0.0000 
   1532 H(1)       14.7731  106.4987   17.5290 H         1 UNK         0.0000 
   1533 H(2)       14.7558  107.0517   15.1413 H         1 UNK         0.0000 
   1534 H(3)       18.6154  105.2307   14.6710 H         1 UNK         0.0000 
   1535 H(4)       18.6281  104.6748   17.0780 H         1 UNK         0.0000 
   1536 H(5)       17.4853  106.3985   13.0039 H         1 UNK         0.0000 
   1537 H(6)       17.7212  104.9235   19.1403 H         1 UNK         0.0000 
   1538 H(7)       16.1670  105.4073   21.7490 H         1 UNK         0.0000 
   1539 H(8)       17.2421  104.2257   21.1093 H         1 UNK         0.0000 
   1540 H(9)       15.5648  103.8597   21.4570 H         1 UNK         0.0000 
   1541 O(1)       20.9654   95.1375   16.5945 O.3       1 UNK         0.0000 
   1542 O(2)       22.9632  101.3063   16.7103 O.2       1 UNK         0.0000 
   1543 N(1)       20.7821  100.7019   16.5226 N.am      1 UNK         0.0000 
   1544 C(1)       20.8815   99.2934   16.5738 C.ar      1 UNK         0.0000 
   1545 C(2)       21.9637   98.6052   17.1221 C.ar      1 UNK         0.0000 
   1546 C(3)       21.9707   97.2134   17.1257 C.ar      1 UNK         0.0000 
   1547 C(4)       20.9007   96.4988   16.5933 C.ar      1 UNK         0.0000 
   1548 C(5)       19.8051   97.1867   16.0731 C.ar      1 UNK         0.0000 
   1549 C(6)       19.7998   98.5743   16.0644 C.ar      1 UNK         0.0000 
   1550 C(7)       21.7728  101.6072   16.5694 C.2       1 UNK         0.0000 
   1551 C(8)       21.3320  103.0413   16.4484 C.3       1 UNK         0.0000 
   1552 H(1)       22.8042   99.1477   17.5368 H         1 UNK         0.0000 
   1553 H(2)       22.8215   96.6969   17.5527 H         1 UNK         0.0000 
   1554 H(3)       18.9619   96.6375   15.6728 H         1 UNK         0.0000 
   1555 H(4)       18.9491   99.1078   15.6585 H         1 UNK         0.0000 
   1556 H(5)       20.0920   94.7549   16.4465 H         1 UNK         0.0000 
   1557 H(6)       19.8561  101.0653   16.3534 H         1 UNK         0.0000 
   1558 H(7)       21.4102  103.5044   17.3976 H         1 UNK         0.0000 
   1559 H(8)       20.3352  103.1394   16.1044 H         1 UNK         0.0000 
   1560 H(9)       22.0125  103.5590   15.8236 H         1 UNK         0.0000 
   1561 O(1)       16.6315   92.6529   22.6641 O.3       1 UNK         0.0000 
   1562 O(2)       18.6293   93.8929   16.6201 O.2       1 UNK         0.0000 
   1563 N(1)       16.4482   93.9436   17.2510 N.am      1 UNK         0.0000 
   1564 C(1)       16.5476   93.5847   18.6139 C.ar      1 UNK         0.0000 
   1565 C(2)       17.6298   92.8988   19.1651 C.ar      1 UNK         0.0000 
   1566 C(3)       17.6368   92.5900   20.5223 C.ar      1 UNK         0.0000 
   1567 C(4)       16.5668   92.9527   21.3362 C.ar      1 UNK         0.0000 
   1568 C(5)       15.4712   93.6110   20.7791 C.ar      1 UNK         0.0000 
   1569 C(6)       15.4659   93.9239   19.4273 C.ar      1 UNK         0.0000 
   1570 C(7)       17.4389   94.0964   16.3575 C.2       1 UNK         0.0000 
   1571 C(8)       16.9981   94.5290   14.9848 C.3       1 UNK         0.0000 
   1572 H(1)       18.4703   92.6131   18.5448 H         1 UNK         0.0000 
   1573 H(2)       18.4876   92.0601   20.9325 H         1 UNK         0.0000 
   1574 H(3)       14.6280   93.8811   21.4028 H         1 UNK         0.0000 
   1575 H(4)       14.6153   94.4370   18.9958 H         1 UNK         0.0000 
   1576 H(5)       15.7581   92.7134   23.0699 H         1 UNK         0.0000 
   1577 H(6)       15.5222   94.1883   16.9335 H         1 UNK         0.0000 
   1578 H(7)       17.0764   93.7046   14.3248 H         1 UNK         0.0000 
   1579 H(8)       16.0013   94.8862   14.9645 H         1 UNK         0.0000 
   1580 H(9)       17.6786   95.2521   14.6168 H         1 UNK         0.0000 
   1581 O(1)       19.3550  103.9743   19.4793 O.3       1 UNK         0.0000 
   1582 O(2)       17.3572   97.8056   19.3635 O.2       1 UNK         0.0000 
   1583 N(1)       19.5383   98.4100   19.5512 N.am      1 UNK         0.0000 
   1584 C(1)       19.4389   99.8184   19.5000 C.ar      1 UNK         0.0000 
   1585 C(2)       18.3567  100.5066   18.9517 C.ar      1 UNK         0.0000 
   1586 C(3)       18.3497  101.8984   18.9482 C.ar      1 UNK         0.0000 
   1587 C(4)       19.4197  102.6130   19.4805 C.ar      1 UNK         0.0000 
   1588 C(5)       20.5153  101.9251   20.0007 C.ar      1 UNK         0.0000 
   1589 C(6)       20.5206  100.5376   20.0094 C.ar      1 UNK         0.0000 
   1590 C(7)       18.5476   97.5047   19.5044 C.2       1 UNK         0.0000 
   1591 C(8)       18.9884   96.0705   19.6254 C.3       1 UNK         0.0000 
   1592 H(1)       17.5162   99.9641   18.5370 H         1 UNK         0.0000 
   1593 H(2)       17.4989  102.4149   18.5211 H         1 UNK         0.0000 
   1594 H(3)       21.3585  102.4744   20.4010 H         1 UNK         0.0000 
   1595 H(4)       21.3713  100.0041   20.4154 H         1 UNK         0.0000 
   1596 H(5)       20.2284  104.3570   19.6273 H         1 UNK         0.0000 
   1597 H(6)       20.4643   98.0465   19.7204 H         1 UNK         0.0000 
   1598 H(7)       18.9102   95.6074   18.6762 H         1 UNK         0.0000 
   1599 H(8)       19.9852   95.9724   19.9694 H         1 UNK         0.0000 
   1600 H(9)       18.3079   95.5529   20.2502 H         1 UNK         0.0000 
   1601 O(1)       15.0211   97.5076   20.5721 O.3       1 UNK         0.0000 
   1602 O(2)       13.0233   96.2675   26.6161 O.2       1 UNK         0.0000 
   1603 N(1)       15.2044   96.2169   25.9852 N.am      1 UNK         0.0000 
   1604 C(1)       15.1050   96.5758   24.6223 C.ar      1 UNK         0.0000 
   1605 C(2)       14.0228   97.2617   24.0711 C.ar      1 UNK         0.0000 
   1606 C(3)       14.0158   97.5705   22.7140 C.ar      1 UNK         0.0000 
   1607 C(4)       15.0858   97.2078   21.9000 C.ar      1 UNK         0.0000 
   1608 C(5)       16.1814   96.5494   22.4571 C.ar      1 UNK         0.0000 
   1609 C(6)       16.1867   96.2365   23.8089 C.ar      1 UNK         0.0000 
   1610 C(7)       14.2137   96.0641   26.8787 C.2       1 UNK         0.0000 
   1611 C(8)       14.6545   95.6314   28.2514 C.3       1 UNK         0.0000 
   1612 H(1)       13.1823   97.5474   24.6914 H         1 UNK         0.0000 
   1613 H(2)       13.1650   98.1004   22.3037 H         1 UNK         0.0000 
   1614 H(3)       17.0246   96.2793   21.8334 H         1 UNK         0.0000 
   1615 H(4)       17.0374   95.7235   24.2404 H         1 UNK         0.0000 
   1616 H(5)       15.8946   97.4471   20.1663 H         1 UNK         0.0000 
   1617 H(6)       16.1304   95.9722   26.3027 H         1 UNK         0.0000 
   1618 H(7)       14.5763   96.4559   28.9114 H         1 UNK         0.0000 
   1619 H(8)       15.6513   95.2743   28.2717 H         1 UNK         0.0000 
   1620 H(9)       13.9740   94.9083   28.6194 H         1 UNK         0.0000 
   1621 O(1)       13.8884  100.8684   23.7569 O.3       1 UNK         0.0000 
   1622 O(2)       15.8862  107.0372   23.8727 O.2       1 UNK         0.0000 
   1623 N(1)       13.7051  106.4328   23.6850 N.am      1 UNK         0.0000 
   1624 C(1)       13.8045  105.0244   23.7362 C.ar      1 UNK         0.0000 
   1625 C(2)       14.8867  104.3362   24.2845 C.ar      1 UNK         0.0000 
   1626 C(3)       14.8937  102.9444   24.2881 C.ar      1 UNK         0.0000 
   1627 C(4)       13.8237  102.2298   23.7557 C.ar      1 UNK         0.0000 
   1628 C(5)       12.7281  102.9177   23.2355 C.ar      1 UNK         0.0000 
   1629 C(6)       12.7228  104.3052   23.2268 C.ar      1 UNK         0.0000 
   1630 C(7)       14.6958  107.3381   23.7318 C.2       1 UNK         0.0000 
   1631 C(8)       14.2550  108.7723   23.6108 C.3       1 UNK         0.0000 
   1632 H(1)       15.7272  104.8787   24.6992 H         1 UNK         0.0000 
   1633 H(2)       15.7445  102.4279   24.7151 H         1 UNK         0.0000 
   1634 H(3)       11.8849  102.3684   22.8352 H         1 UNK         0.0000 
   1635 H(4)       11.8721  104.8387   22.8209 H         1 UNK         0.0000 
   1636 H(5)       13.0150  100.4858   23.6089 H         1 UNK         0.0000 
   1637 H(6)       12.7791  106.7963   23.5158 H         1 UNK         0.0000 
   1638 H(7)       14.3332  109.2354   24.5600 H         1 UNK         0.0000 
   1639 H(8)       13.2582  108.8704   23.2668 H         1 UNK         0.0000 
   1640 H(9)       14.9355  109.2899   22.9860 H         1 UNK         0.0000 
   1641 O(1)       18.2223   95.8732    8.3393 O.3       1 UNK         0.0000 
   1642 O(2)       20.2201   97.1133    2.2953 O.2       1 UNK         0.0000 
   1643 N(1)       18.0390   97.1640    2.9262 N.am      1 UNK         0.0000 
   1644 C(1)       18.1384   96.8050    4.2891 C.ar      1 UNK         0.0000 
   1645 C(2)       19.2206   96.1192    4.8403 C.ar      1 UNK         0.0000 
   1646 C(3)       19.2276   95.8104    6.1975 C.ar      1 UNK         0.0000 
   1647 C(4)       18.1576   96.1731    7.0114 C.ar      1 UNK         0.0000 
   1648 C(5)       17.0620   96.8314    6.4543 C.ar      1 UNK         0.0000 
   1649 C(6)       17.0567   97.1443    5.1025 C.ar      1 UNK         0.0000 
   1650 C(7)       19.0297   97.3168    2.0327 C.2       1 UNK         0.0000 
   1651 C(8)       18.5889   97.7494    0.6600 C.3       1 UNK         0.0000 
   1652 H(1)       20.0611   95.8335    4.2200 H         1 UNK         0.0000 
   1653 H(2)       20.0784   95.2805    6.6077 H         1 UNK         0.0000 
   1654 H(3)       16.2188   97.1015    7.0780 H         1 UNK         0.0000 
   1655 H(4)       16.2060   97.6574    4.6710 H         1 UNK         0.0000 
   1656 H(5)       17.3488   95.9338    8.7451 H         1 UNK         0.0000 
   1657 H(6)       17.1130   97.4087    2.6087 H         1 UNK         0.0000 
   1658 H(7)       18.6671   96.9250    0.0000 H         1 UNK         0.0000 
   1659 H(8)       17.5921   98.1066    0.6397 H         1 UNK         0.0000 
   1660 H(9)       19.2694   98.4725    0.2920 H         1 UNK         0.0000 
   1661 O(1)       20.9458  107.1947    5.1545 O.3       1 UNK         0.0000 
   1662 O(2)       18.9480  101.0260    5.0387 O.2       1 UNK         0.0000 
   1663 N(1)       21.1291  101.6304    5.2264 N.am      1 UNK         0.0000 
   1664 C(1)       21.0297  103.0388    5.1752 C.ar      1 UNK         0.0000 
   1665 C(2)       19.9475  103.7270    4.6269 C.ar      1 UNK         0.0000 
   1666 C(3)       19.9405  105.1188    4.6234 C.ar      1 UNK         0.0000 
   1667 C(4)       21.0105  105.8334    5.1557 C.ar      1 UNK         0.0000 
   1668 C(5)       22.1061  105.1455    5.6759 C.ar      1 UNK         0.0000 
   1669 C(6)       22.1114  103.7580    5.6846 C.ar      1 UNK         0.0000 
   1670 C(7)       20.1383  100.7251    5.1796 C.2       1 UNK         0.0000 
   1671 C(8)       20.5792   99.2909    5.3006 C.3       1 UNK         0.0000 
   1672 H(1)       19.1070  103.1845    4.2122 H         1 UNK         0.0000 
   1673 H(2)       19.0897  105.6353    4.1963 H         1 UNK         0.0000 
   1674 H(3)       22.9493  105.6948    6.0762 H         1 UNK         0.0000 
   1675 H(4)       22.9620  103.2245    6.0906 H         1 UNK         0.0000 
   1676 H(5)       21.8192  107.5773    5.3025 H         1 UNK         0.0000 
   1677 H(6)       22.0551  101.2669    5.3956 H         1 UNK         0.0000 
   1678 H(7)       20.5009   98.8278    4.3514 H         1 UNK         0.0000 
   1679 H(8)       21.5760   99.1928    5.6446 H         1 UNK         0.0000 
   1680 H(9)       19.8987   98.7733    5.9254 H         1 UNK         0.0000 
   1681 O(1)       18.2027  115.4103    6.2473 O.3       1 UNK         0.0000 
   1682 O(2)       16.2049  114.1703   12.2913 O.2       1 UNK         0.0000 
   1683 N(1)       18.3860  114.1196   11.6604 N.am      1 UNK         0.0000 
   1684 C(1)       18.2866  114.4785   10.2975 C.ar      1 UNK         0.0000 
   1685 C(2)       17.2044  115.1644    9.7463 C.ar      1 UNK         0.0000 
   1686 C(3)       17.1974  115.4732    8.3892 C.ar      1 UNK         0.0000 
   1687 C(4)       18.2674  115.1105    7.5752 C.ar      1 UNK         0.0000 
   1688 C(5)       19.3630  114.4521    8.1323 C.ar      1 UNK         0.0000 
   1689 C(6)       19.3683  114.1393    9.4841 C.ar      1 UNK         0.0000 
   1690 C(7)       17.3952  113.9668   12.5539 C.2       1 UNK         0.0000 
   1691 C(8)       17.8361  113.5342   13.9266 C.3       1 UNK         0.0000 
   1692 H(1)       16.3639  115.4501   10.3666 H         1 UNK         0.0000 
   1693 H(2)       16.3466  116.0031    7.9789 H         1 UNK         0.0000 
   1694 H(3)       20.2062  114.1821    7.5086 H         1 UNK         0.0000 
   1695 H(4)       20.2189  113.6262    9.9156 H         1 UNK         0.0000 
   1696 H(5)       19.0761  115.3498    5.8415 H         1 UNK         0.0000 
   1697 H(6)       19.3120  113.8749   11.9779 H         1 UNK         0.0000 
   1698 H(7)       17.7578  114.3586   14.5866 H         1 UNK         0.0000 
   1699 H(8)       18.8329  113.1770   13.9469 H         1 UNK         0.0000 
   1700 H(9)       17.1556  112.8111   14.2946 H         1 UNK         0.0000 
   1701 O(1)       22.5562  104.0888    9.4321 O.3       1 UNK         0.0000 
   1702 O(2)       24.5540  110.2576    9.5479 O.2       1 UNK         0.0000 
   1703 N(1)       22.3728  109.6532    9.3602 N.am      1 UNK         0.0000 
   1704 C(1)       22.4723  108.2448    9.4114 C.ar      1 UNK         0.0000 
   1705 C(2)       23.5545  107.5566    9.9597 C.ar      1 UNK         0.0000 
   1706 C(3)       23.5615  106.1648    9.9633 C.ar      1 UNK         0.0000 
   1707 C(4)       22.4915  105.4502    9.4309 C.ar      1 UNK         0.0000 
   1708 C(5)       21.3959  106.1381    8.9107 C.ar      1 UNK         0.0000 
   1709 C(6)       21.3905  107.5256    8.9020 C.ar      1 UNK         0.0000 
   1710 C(7)       23.3636  110.5585    9.4070 C.2       1 UNK         0.0000 
   1711 C(8)       22.9228  111.9927    9.2860 C.3       1 UNK         0.0000 
   1712 H(1)       24.3950  108.0991   10.3744 H         1 UNK         0.0000 
   1713 H(2)       24.4123  105.6483   10.3903 H         1 UNK         0.0000 
   1714 H(3)       20.5527  105.5888    8.5104 H         1 UNK         0.0000 
   1715 H(4)       20.5399  108.0591    8.4961 H         1 UNK         0.0000 
   1716 H(5)       21.6827  103.7062    9.2841 H         1 UNK         0.0000 
   1717 H(6)       21.4469  110.0167    9.1910 H         1 UNK         0.0000 
   1718 H(7)       23.0010  112.4558   10.2352 H         1 UNK         0.0000 
   1719 H(8)       21.9260  112.0908    8.9420 H         1 UNK         0.0000 
   1720 H(9)       23.6032  112.5103    8.6612 H         1 UNK         0.0000 
   1721 O(1)       12.7361  116.2865   15.5017 O.3       1 UNK         0.0000 
   1722 O(2)       14.7339  117.5266    9.4577 O.2       1 UNK         0.0000 
   1723 N(1)       12.5527  117.5773   10.0886 N.am      1 UNK         0.0000 
   1724 C(1)       12.6522  117.2183   11.4515 C.ar      1 UNK         0.0000 
   1725 C(2)       13.7343  116.5325   12.0027 C.ar      1 UNK         0.0000 
   1726 C(3)       13.7414  116.2237   13.3599 C.ar      1 UNK         0.0000 
   1727 C(4)       12.6714  116.5864   14.1738 C.ar      1 UNK         0.0000 
   1728 C(5)       11.5757  117.2447   13.6167 C.ar      1 UNK         0.0000 
   1729 C(6)       11.5704  117.5576   12.2649 C.ar      1 UNK         0.0000 
   1730 C(7)       13.5435  117.7301    9.1951 C.2       1 UNK         0.0000 
   1731 C(8)       13.1027  118.1627    7.8224 C.3       1 UNK         0.0000 
   1732 H(1)       14.5749  116.2468   11.3824 H         1 UNK         0.0000 
   1733 H(2)       14.5922  115.6938   13.7701 H         1 UNK         0.0000 
   1734 H(3)       10.7326  117.5148   14.2404 H         1 UNK         0.0000 
   1735 H(4)       10.7198  118.0707   11.8334 H         1 UNK         0.0000 
   1736 H(5)       11.8626  116.3471   15.9075 H         1 UNK         0.0000 
   1737 H(6)       11.6268  117.8220    9.7711 H         1 UNK         0.0000 
   1738 H(7)       13.1809  117.3383    7.1624 H         1 UNK         0.0000 
   1739 H(8)       12.1059  118.5199    7.8021 H         1 UNK         0.0000 
   1740 H(9)       13.7831  118.8858    7.4544 H         1 UNK         0.0000 
   1741 O(1)       13.8688  112.9257   12.3169 O.3       1 UNK         0.0000 
   1742 O(2)       11.8710  106.7569   12.2011 O.2       1 UNK         0.0000 
   1743 N(1)       14.0521  107.3613   12.3888 N.am      1 UNK         0.0000 
   1744 C(1)       13.9527  108.7698   12.3376 C.ar      1 UNK         0.0000 
   1745 C(2)       12.8705  109.4580   11.7893 C.ar      1 UNK         0.0000 
   1746 C(3)       12.8635  110.8498   11.7858 C.ar      1 UNK         0.0000 
   1747 C(4)       13.9335  111.5644   12.3181 C.ar      1 UNK         0.0000 
   1748 C(5)       15.0291  110.8765   12.8383 C.ar      1 UNK         0.0000 
   1749 C(6)       15.0344  109.4889   12.8470 C.ar      1 UNK         0.0000 
   1750 C(7)       13.0613  106.4560   12.3420 C.2       1 UNK         0.0000 
   1751 C(8)       13.5022  105.0219   12.4630 C.3       1 UNK         0.0000 
   1752 H(1)       12.0300  108.9154   11.3746 H         1 UNK         0.0000 
   1753 H(2)       12.0127  111.3663   11.3587 H         1 UNK         0.0000 
   1754 H(3)       15.8723  111.4257   13.2386 H         1 UNK         0.0000 
   1755 H(4)       15.8850  108.9554   13.2530 H         1 UNK         0.0000 
   1756 H(5)       14.7422  113.3083   12.4649 H         1 UNK         0.0000 
   1757 H(6)       14.9781  106.9979   12.5580 H         1 UNK         0.0000 
   1758 H(7)       13.4239  104.5588   11.5138 H         1 UNK         0.0000 
   1759 H(8)       14.4990  104.9238   12.8070 H         1 UNK         0.0000 
   1760 H(9)       12.8217  104.5042   13.0878 H         1 UNK         0.0000 
   1761 O(1)       18.2027  121.1413   13.4097 O.3       1 UNK         0.0000 
   1762 O(2)       16.2049  119.9012   19.4537 O.2       1 UNK         0.0000 
   1763 N(1)       18.3860  119.8506   18.8228 N.am      1 UNK         0.0000 
   1764 C(1)       18.2866  120.2095   17.4599 C.ar      1 UNK         0.0000 
   1765 C(2)       17.2044  120.8954   16.9087 C.ar      1 UNK         0.0000 
   1766 C(3)       17.1974  121.2042   15.5516 C.ar      1 UNK         0.0000 
   1767 C(4)       18.2674  120.8415   14.7376 C.ar      1 UNK         0.0000 
   1768 C(5)       19.3630  120.1831   15.2947 C.ar      1 UNK         0.0000 
   1769 C(6)       19.3683  119.8702   16.6465 C.ar      1 UNK         0.0000 
   1770 C(7)       17.3952  119.6978   19.7163 C.2       1 UNK         0.0000 
   1771 C(8)       17.8361  119.2651   21.0890 C.3       1 UNK         0.0000 
   1772 H(1)       16.3639  121.1810   17.5290 H         1 UNK         0.0000 
   1773 H(2)       16.3466  121.7341   15.1413 H         1 UNK         0.0000 
   1774 H(3)       20.2062  119.9130   14.6710 H         1 UNK         0.0000 
   1775 H(4)       20.2189  119.3572   17.0780 H         1 UNK         0.0000 
   1776 H(5)       19.0761  121.0808   13.0039 H         1 UNK         0.0000 
   1777 H(6)       19.3120  119.6059   19.1403 H         1 UNK         0.0000 
   1778 H(7)       17.7578  120.0896   21.7490 H         1 UNK         0.0000 
   1779 H(8)       18.8329  118.9080   21.1093 H         1 UNK         0.0000 
   1780 H(9)       17.1556  118.5420   21.4570 H         1 UNK         0.0000 
   1781 O(1)       22.5562  109.8198   16.5945 O.3       1 UNK         0.0000 
   1782 O(2)       24.5540  115.9886   16.7103 O.2       1 UNK         0.0000 
   1783 N(1)       22.3728  115.3842   16.5226 N.am      1 UNK         0.0000 
   1784 C(1)       22.4723  113.9758   16.5738 C.ar      1 UNK         0.0000 
   1785 C(2)       23.5545  113.2875   17.1221 C.ar      1 UNK         0.0000 
   1786 C(3)       23.5615  111.8957   17.1257 C.ar      1 UNK         0.0000 
   1787 C(4)       22.4915  111.1811   16.5933 C.ar      1 UNK         0.0000 
   1788 C(5)       21.3959  111.8690   16.0731 C.ar      1 UNK         0.0000 
   1789 C(6)       21.3905  113.2566   16.0644 C.ar      1 UNK         0.0000 
   1790 C(7)       23.3636  116.2895   16.5694 C.2       1 UNK         0.0000 
   1791 C(8)       22.9228  117.7236   16.4484 C.3       1 UNK         0.0000 
   1792 H(1)       24.3950  113.8301   17.5368 H         1 UNK         0.0000 
   1793 H(2)       24.4123  111.3793   17.5527 H         1 UNK         0.0000 
   1794 H(3)       20.5527  111.3198   15.6728 H         1 UNK         0.0000 
   1795 H(4)       20.5399  113.7901   15.6585 H         1 UNK         0.0000 
   1796 H(5)       21.6827  109.4372   16.4465 H         1 UNK         0.0000 
   1797 H(6)       21.4469  115.7477   16.3534 H         1 UNK         0.0000 
   1798 H(7)       23.0010  118.1867   17.3976 H         1 UNK         0.0000 
   1799 H(8)       21.9260  117.8218   16.1044 H         1 UNK         0.0000 
   1800 H(9)       23.6032  118.2413   15.8236 H         1 UNK         0.0000 
   1801 O(1)       18.2223  107.3352   22.6641 O.3       1 UNK         0.0000 
   1802 O(2)       20.2201  108.5753   16.6201 O.2       1 UNK         0.0000 
   1803 N(1)       18.0390  108.6259   17.2510 N.am      1 UNK         0.0000 
   1804 C(1)       18.1384  108.2670   18.6139 C.ar      1 UNK         0.0000 
   1805 C(2)       19.2206  107.5811   19.1651 C.ar      1 UNK         0.0000 
   1806 C(3)       19.2276  107.2723   20.5223 C.ar      1 UNK         0.0000 
   1807 C(4)       18.1576  107.6350   21.3362 C.ar      1 UNK         0.0000 
   1808 C(5)       17.0620  108.2934   20.7791 C.ar      1 UNK         0.0000 
   1809 C(6)       17.0567  108.6062   19.4273 C.ar      1 UNK         0.0000 
   1810 C(7)       19.0297  108.7787   16.3575 C.2       1 UNK         0.0000 
   1811 C(8)       18.5889  109.2114   14.9848 C.3       1 UNK         0.0000 
   1812 H(1)       20.0611  107.2954   18.5448 H         1 UNK         0.0000 
   1813 H(2)       20.0784  106.7424   20.9325 H         1 UNK         0.0000 
   1814 H(3)       16.2188  108.5635   21.4028 H         1 UNK         0.0000 
   1815 H(4)       16.2060  109.1193   18.9958 H         1 UNK         0.0000 
   1816 H(5)       17.3488  107.3957   23.0699 H         1 UNK         0.0000 
   1817 H(6)       17.1130  108.8706   16.9335 H         1 UNK         0.0000 
   1818 H(7)       18.6671  108.3869   14.3248 H         1 UNK         0.0000 
   1819 H(8)       17.5921  109.5685   14.9645 H         1 UNK         0.0000 
   1820 H(9)       19.2694  109.9345   14.6168 H         1 UNK         0.0000 
   1821 O(1)       20.9458  118.6567   19.4793 O.3       1 UNK         0.0000 
   1822 O(2)       18.9480  112.4879   19.3635 O.2       1 UNK         0.0000 
   1823 N(1)       21.1291  113.0923   19.5512 N.am      1 UNK         0.0000 
   1824 C(1)       21.0297  114.5007   19.5000 C.ar      1 UNK         0.0000 
   1825 C(2)       19.9475  115.1890   18.9517 C.ar      1 UNK         0.0000 
   1826 C(3)       19.9405  116.5808   18.9482 C.ar      1 UNK         0.0000 
   1827 C(4)       21.0105  117.2954   19.4805 C.ar      1 UNK         0.0000 
   1828 C(5)       22.1061  116.6074   20.0007 C.ar      1 UNK         0.0000 
   1829 C(6)       22.1114  115.2199   20.0094 C.ar      1 UNK         0.0000 
   1830 C(7)       20.1383  112.1870   19.5044 C.2       1 UNK         0.0000 
   1831 C(8)       20.5792  110.7529   19.6254 C.3       1 UNK         0.0000 
   1832 H(1)       19.1070  114.6464   18.5370 H         1 UNK         0.0000 
   1833 H(2)       19.0897  117.0972   18.5211 H         1 UNK         0.0000 
   1834 H(3)       22.9493  117.1567   20.4010 H         1 UNK         0.0000 
   1835 H(4)       22.9620  114.6864   20.4154 H         1 UNK         0.0000 
   1836 H(5)       21.8192  119.0393   19.6273 H         1 UNK         0.0000 
   1837 H(6)       22.0551  112.7288   19.7204 H         1 UNK         0.0000 
   1838 H(7)       20.5009  110.2898   18.6762 H         1 UNK         0.0000 
   1839 H(8)       21.5760  110.6547   19.9694 H         1 UNK         0.0000 
   1840 H(9)       19.8987  110.2352   20.2502 H         1 UNK         0.0000 
   1841 O(1)       16.6119  112.1899   20.5721 O.3       1 UNK         0.0000 
   1842 O(2)       14.6141  110.9499   26.6161 O.2       1 UNK         0.0000 
   1843 N(1)       16.7952  110.8992   25.9852 N.am      1 UNK         0.0000 
   1844 C(1)       16.6958  111.2581   24.6223 C.ar      1 UNK         0.0000 
   1845 C(2)       15.6136  111.9440   24.0711 C.ar      1 UNK         0.0000 
   1846 C(3)       15.6066  112.2528   22.7140 C.ar      1 UNK         0.0000 
   1847 C(4)       16.6766  111.8901   21.9000 C.ar      1 UNK         0.0000 
   1848 C(5)       17.7722  111.2318   22.4571 C.ar      1 UNK         0.0000 
   1849 C(6)       17.7775  110.9189   23.8089 C.ar      1 UNK         0.0000 
   1850 C(7)       15.8045  110.7464   26.8787 C.2       1 UNK         0.0000 
   1851 C(8)       16.2453  110.3138   28.2514 C.3       1 UNK         0.0000 
   1852 H(1)       14.7731  112.2297   24.6914 H         1 UNK         0.0000 
   1853 H(2)       14.7558  112.7827   22.3037 H         1 UNK         0.0000 
   1854 H(3)       18.6154  110.9617   21.8334 H         1 UNK         0.0000 
   1855 H(4)       18.6281  110.4058   24.2404 H         1 UNK         0.0000 
   1856 H(5)       17.4853  112.1294   20.1663 H         1 UNK         0.0000 
   1857 H(6)       17.7212  110.6545   26.3027 H         1 UNK         0.0000 
   1858 H(7)       16.1670  111.1382   28.9114 H         1 UNK         0.0000 
   1859 H(8)       17.2421  109.9566   28.2717 H         1 UNK         0.0000 
   1860 H(9)       15.5648  109.5907   28.6194 H         1 UNK         0.0000 
   1861 O(1)       15.4792  115.5508   23.7569 O.3       1 UNK         0.0000 
   1862 O(2)       17.4770  121.7196   23.8727 O.2       1 UNK         0.0000 
   1863 N(1)       15.2958  121.1152   23.6850 N.am      1 UNK         0.0000 
   1864 C(1)       15.3953  119.7067   23.7362 C.ar      1 UNK         0.0000 
   1865 C(2)       16.4775  119.0185   24.2845 C.ar      1 UNK         0.0000 
   1866 C(3)       16.4845  117.6267   24.2881 C.ar      1 UNK         0.0000 
   1867 C(4)       15.4145  116.9121   23.7557 C.ar      1 UNK         0.0000 
   1868 C(5)       14.3189  117.6000   23.2355 C.ar      1 UNK         0.0000 
   1869 C(6)       14.3135  118.9876   23.2268 C.ar      1 UNK         0.0000 
   1870 C(7)       16.2866  122.0205   23.7318 C.2       1 UNK         0.0000 
   1871 C(8)       15.8458  123.4546   23.6108 C.3       1 UNK         0.0000 
   1872 H(1)       17.3180  119.5610   24.6992 H         1 UNK         0.0000 
   1873 H(2)       17.3353  117.1102   24.7151 H         1 UNK         0.0000 
   1874 H(3)       13.4757  117.0508   22.8352 H         1 UNK         0.0000 
   1875 H(4)       13.4629  119.5211   22.8209 H         1 UNK         0.0000 
   1876 H(5)       14.6057  115.1682   23.6089 H         1 UNK         0.0000 
   1877 H(6)       14.3699  121.4786   23.5158 H         1 UNK         0.0000 
   1878 H(7)       15.9240  123.9177   24.5600 H         1 UNK         0.0000 
   1879 H(8)       14.8490  123.5527   23.2668 H         1 UNK         0.0000 
   1880 H(9)       16.5262  123.9723   22.9860 H         1 UNK         0.0000 
   1881 O(1)       19.8131  110.5556    8.3393 O.3       1 UNK         0.0000 
   1882 O(2)       21.8109  111.7957    2.2953 O.2       1 UNK         0.0000 
   1883 N(1)       19.6297  111.8463    2.9262 N.am      1 UNK         0.0000 
   1884 C(1)       19.7292  111.4874    4.2891 C.ar      1 UNK         0.0000 
   1885 C(2)       20.8113  110.8015    4.8403 C.ar      1 UNK         0.0000 
   1886 C(3)       20.8184  110.4927    6.1975 C.ar      1 UNK         0.0000 
   1887 C(4)       19.7484  110.8554    7.0114 C.ar      1 UNK         0.0000 
   1888 C(5)       18.6527  111.5138    6.4543 C.ar      1 UNK         0.0000 
   1889 C(6)       18.6474  111.8266    5.1025 C.ar      1 UNK         0.0000 
   1890 C(7)       20.6205  111.9991    2.0327 C.2       1 UNK         0.0000 
   1891 C(8)       20.1797  112.4318    0.6600 C.3       1 UNK         0.0000 
   1892 H(1)       21.6519  110.5158    4.2200 H         1 UNK         0.0000 
   1893 H(2)       21.6692  109.9628    6.6077 H         1 UNK         0.0000 
   1894 H(3)       17.8096  111.7839    7.0780 H         1 UNK         0.0000 
   1895 H(4)       17.7968  112.3397    4.6710 H         1 UNK         0.0000 
   1896 H(5)       18.9396  110.6161    8.7451 H         1 UNK         0.0000 
   1897 H(6)       18.7038  112.0910    2.6087 H         1 UNK         0.0000 
   1898 H(7)       20.2579  111.6073    0.0000 H         1 UNK         0.0000 
   1899 H(8)       19.1829  112.7889    0.6397 H         1 UNK         0.0000 
   1900 H(9)       20.8601  113.1549    0.2920 H         1 UNK         0.0000 
   1901 O(1)       22.5366  121.8771    5.1545 O.3       1 UNK         0.0000 
   1902 O(2)       20.5388  115.7083    5.0387 O.2       1 UNK         0.0000 
   1903 N(1)       22.7199  116.3127    5.2264 N.am      1 UNK         0.0000 
   1904 C(1)       22.6205  117.7211    5.1752 C.ar      1 UNK         0.0000 
   1905 C(2)       21.5383  118.4094    4.6269 C.ar      1 UNK         0.0000 
   1906 C(3)       21.5313  119.8012    4.6234 C.ar      1 UNK         0.0000 
   1907 C(4)       22.6013  120.5158    5.1557 C.ar      1 UNK         0.0000 
   1908 C(5)       23.6969  119.8278    5.6759 C.ar      1 UNK         0.0000 
   1909 C(6)       23.7022  118.4403    5.6846 C.ar      1 UNK         0.0000 
   1910 C(7)       21.7291  115.4074    5.1796 C.2       1 UNK         0.0000 
   1911 C(8)       22.1700  113.9733    5.3006 C.3       1 UNK         0.0000 
   1912 H(1)       20.6978  117.8668    4.2122 H         1 UNK         0.0000 
   1913 H(2)       20.6805  120.3176    4.1963 H         1 UNK         0.0000 
   1914 H(3)       24.5401  120.3771    6.0762 H         1 UNK         0.0000 
   1915 H(4)       24.5528  117.9068    6.0906 H         1 UNK         0.0000 
   1916 H(5)       23.4100  122.2597    5.3025 H         1 UNK         0.0000 
   1917 H(6)       23.6459  115.9492    5.3956 H         1 UNK         0.0000 
   1918 H(7)       22.0917  113.5102    4.3514 H         1 UNK         0.0000 
   1919 H(8)       23.1668  113.8751    5.6446 H         1 UNK         0.0000 
   1920 H(9)       21.4895  113.4556    5.9254 H         1 UNK         0.0000 
   1921 O(1)       19.7935  130.0927    6.2473 O.3       1 UNK         0.0000 
   1922 O(2)       17.7957  128.8526   12.2913 O.2       1 UNK         0.0000 
   1923 N(1)       19.9768  128.8020   11.6604 N.am      1 UNK         0.0000 
   1924 C(1)       19.8773  129.1609   10.2975 C.ar      1 UNK         0.0000 
   1925 C(2)       18.7952  129.8468    9.7463 C.ar      1 UNK         0.0000 
   1926 C(3)       18.7882  130.1555    8.3892 C.ar      1 UNK         0.0000 
   1927 C(4)       19.8582  129.7929    7.5752 C.ar      1 UNK         0.0000 
   1928 C(5)       20.9538  129.1345    8.1323 C.ar      1 UNK         0.0000 
   1929 C(6)       20.9591  128.8216    9.4841 C.ar      1 UNK         0.0000 
   1930 C(7)       18.9860  128.6491   12.5539 C.2       1 UNK         0.0000 
   1931 C(8)       19.4269  128.2165   13.9266 C.3       1 UNK         0.0000 
   1932 H(1)       17.9547  130.1324   10.3666 H         1 UNK         0.0000 
   1933 H(2)       17.9373  130.6854    7.9789 H         1 UNK         0.0000 
   1934 H(3)       21.7970  128.8644    7.5086 H         1 UNK         0.0000 
   1935 H(4)       21.8097  128.3085    9.9156 H         1 UNK         0.0000 
   1936 H(5)       20.6669  130.0322    5.8415 H         1 UNK         0.0000 
   1937 H(6)       20.9028  128.5572   11.9779 H         1 UNK         0.0000 
   1938 H(7)       19.3486  129.0410   14.5866 H         1 UNK         0.0000 
   1939 H(8)       20.4237  127.8594   13.9469 H         1 UNK         0.0000 
   1940 H(9)       18.7464  127.4934   14.2946 H         1 UNK         0.0000 
   1941 O(1)       24.1470  118.7712    9.4321 O.3       1 UNK         0.0000 
   1942 O(2)       26.1448  124.9400    9.5479 O.2       1 UNK         0.0000 
   1943 N(1)       23.9636  124.3356    9.3602 N.am      1 UNK         0.0000 
   1944 C(1)       24.0631  122.9271    9.4114 C.ar      1 UNK         0.0000 
   1945 C(2)       25.1452  122.2389    9.9597 C.ar      1 UNK         0.0000 
   1946 C(3)       25.1523  120.8471    9.9633 C.ar      1 UNK         0.0000 
   1947 C(4)       24.0822  120.1325    9.4309 C.ar      1 UNK         0.0000 
   1948 C(5)       22.9866  120.8204    8.9107 C.ar      1 UNK         0.0000 
   1949 C(6)       22.9813  122.2080    8.9020 C.ar      1 UNK         0.0000 
   1950 C(7)       24.9544  125.2409    9.4070 C.2       1 UNK         0.0000 
   1951 C(8)       24.5136  126.6750    9.2860 C.3       1 UNK         0.0000 
   1952 H(1)       25.9858  122.7814   10.3744 H         1 UNK         0.0000 
   1953 H(2)       26.0031  120.3306   10.3903 H         1 UNK         0.0000 
   1954 H(3)       22.1435  120.2712    8.5104 H         1 UNK         0.0000 
   1955 H(4)       22.1307  122.7415    8.4961 H         1 UNK         0.0000 
   1956 H(5)       23.2735  118.3886    9.2841 H         1 UNK         0.0000 
   1957 H(6)       23.0377  124.6990    9.1910 H         1 UNK         0.0000 
   1958 H(7)       24.5918  127.1381   10.2352 H         1 UNK         0.0000 
   1959 H(8)       23.5168  126.7731    8.9420 H         1 UNK         0.0000 
   1960 H(9)       25.1940  127.1927    8.6612 H         1 UNK         0.0000 
   1961 O(1)       14.3269  130.9689   15.5017 O.3       1 UNK         0.0000 
   1962 O(2)       16.3247  132.2090    9.4577 O.2       1 UNK         0.0000 
   1963 N(1)       14.1435  132.2596   10.0886 N.am      1 UNK         0.0000 
   1964 C(1)       14.2430  131.9007   11.4515 C.ar      1 UNK         0.0000 
   1965 C(2)       15.3251  131.2148   12.0027 C.ar      1 UNK         0.0000 
   1966 C(3)       15.3322  130.9060   13.3599 C.ar      1 UNK         0.0000 
   1967 C(4)       14.2621  131.2687   14.1738 C.ar      1 UNK         0.0000 
   1968 C(5)       13.1665  131.9271   13.6167 C.ar      1 UNK         0.0000 
   1969 C(6)       13.1612  132.2399   12.2649 C.ar      1 UNK         0.0000 
   1970 C(7)       15.1343  132.4124    9.1951 C.2       1 UNK         0.0000 
   1971 C(8)       14.6934  132.8451    7.8224 C.3       1 UNK         0.0000 
   1972 H(1)       16.1657  130.9291   11.3824 H         1 UNK         0.0000 
   1973 H(2)       16.1830  130.3761   13.7701 H         1 UNK         0.0000 
   1974 H(3)       12.3234  132.1972   14.2404 H         1 UNK         0.0000 
   1975 H(4)       12.3106  132.7530   11.8334 H         1 UNK         0.0000 
   1976 H(5)       13.4534  131.0294   15.9075 H         1 UNK         0.0000 
   1977 H(6)       13.2176  132.5043    9.7711 H         1 UNK         0.0000 
   1978 H(7)       14.7717  132.0206    7.1624 H         1 UNK         0.0000 
   1979 H(8)       13.6967  133.2022    7.8021 H         1 UNK         0.0000 
   1980 H(9)       15.3739  133.5682    7.4544 H         1 UNK         0.0000 
   1981 O(1)       15.4596  127.6080   12.3169 O.3       1 UNK         0.0000 
   1982 O(2)       13.4618  121.4393   12.2011 O.2       1 UNK         0.0000 
   1983 N(1)       15.6429  122.0437   12.3888 N.am      1 UNK         0.0000 
   1984 C(1)       15.5434  123.4521   12.3376 C.ar      1 UNK         0.0000 
   1985 C(2)       14.4613  124.1403   11.7893 C.ar      1 UNK         0.0000 
   1986 C(3)       14.4543  125.5321   11.7858 C.ar      1 UNK         0.0000 
   1987 C(4)       15.5243  126.2467   12.3181 C.ar      1 UNK         0.0000 
   1988 C(5)       16.6199  125.5588   12.8383 C.ar      1 UNK         0.0000 
   1989 C(6)       16.6252  124.1713   12.8470 C.ar      1 UNK         0.0000 
   1990 C(7)       14.6521  121.1383   12.3420 C.2       1 UNK         0.0000 
   1991 C(8)       15.0930  119.7042   12.4630 C.3       1 UNK         0.0000 
   1992 H(1)       13.6208  123.5978   11.3746 H         1 UNK         0.0000 
   1993 H(2)       13.6035  126.0486   11.3587 H         1 UNK         0.0000 
   1994 H(3)       17.4631  126.1081   13.2386 H         1 UNK         0.0000 
   1995 H(4)       17.4758  123.6378   13.2530 H         1 UNK         0.0000 
   1996 H(5)       16.3330  127.9906   12.4649 H         1 UNK         0.0000 
   1997 H(6)       16.5689  121.6802   12.5580 H         1 UNK         0.0000 
   1998 H(7)       15.0147  119.2411   11.5138 H         1 UNK         0.0000 
   1999 H(8)       16.0898  119.6061   12.8070 H         1 UNK         0.0000 
   2000 H(9)       14.4125  119.1866   13.0878 H         1 UNK         0.0000 
   2001 O(1)       19.7935  135.8236   13.4097 O.3       1 UNK         0.0000 
   2002 O(2)       17.7957  134.5836   19.4537 O.2       1 UNK         0.0000 
   2003 N(1)       19.9768  134.5329   18.8228 N.am      1 UNK         0.0000 
   2004 C(1)       19.8773  134.8918   17.4599 C.ar      1 UNK         0.0000 
   2005 C(2)       18.7952  135.5777   16.9087 C.ar      1 UNK         0.0000 
   2006 C(3)       18.7882  135.8865   15.5516 C.ar      1 UNK         0.0000 
   2007 C(4)       19.8582  135.5238   14.7376 C.ar      1 UNK         0.0000 
   2008 C(5)       20.9538  134.8654   15.2947 C.ar      1 UNK         0.0000 
   2009 C(6)       20.9591  134.5526   16.6465 C.ar      1 UNK         0.0000 
   2010 C(7)       18.9860  134.3801   19.7163 C.2       1 UNK         0.0000 
   2011 C(8)       19.4269  133.9475   21.0890 C.3       1 UNK         0.0000 
   2012 H(1)       17.9547  135.8634   17.5290 H         1 UNK         0.0000 
   2013 H(2)       17.9373  136.4164   15.1413 H         1 UNK         0.0000 
   2014 H(3)       21.7970  134.5954   14.6710 H         1 UNK         0.0000 
   2015 H(4)       21.8097  134.0395   17.0780 H         1 UNK         0.0000 
   2016 H(5)       20.6669  135.7631   13.0039 H         1 UNK         0.0000 
   2017 H(6)       20.9028  134.2882   19.1403 H         1 UNK         0.0000 
   2018 H(7)       19.3486  134.7719   21.7490 H         1 UNK         0.0000 
   2019 H(8)       20.4237  133.5903   21.1093 H         1 UNK         0.0000 
   2020 H(9)       18.7464  133.2244   21.4570 H         1 UNK         0.0000 
   2021 O(1)       24.1470  124.5021   16.5945 O.3       1 UNK         0.0000 
   2022 O(2)       26.1448  130.6709   16.7103 O.2       1 UNK         0.0000 
   2023 N(1)       23.9636  130.0665   16.5226 N.am      1 UNK         0.0000 
   2024 C(1)       24.0631  128.6581   16.5738 C.ar      1 UNK         0.0000 
   2025 C(2)       25.1452  127.9699   17.1221 C.ar      1 UNK         0.0000 
   2026 C(3)       25.1523  126.5781   17.1257 C.ar      1 UNK         0.0000 
   2027 C(4)       24.0822  125.8635   16.5933 C.ar      1 UNK         0.0000 
   2028 C(5)       22.9866  126.5514   16.0731 C.ar      1 UNK         0.0000 
   2029 C(6)       22.9813  127.9389   16.0644 C.ar      1 UNK         0.0000 
   2030 C(7)       24.9544  130.9718   16.5694 C.2       1 UNK         0.0000 
   2031 C(8)       24.5136  132.4060   16.4484 C.3       1 UNK         0.0000 
   2032 H(1)       25.9858  128.5124   17.5368 H         1 UNK         0.0000 
   2033 H(2)       26.0031  126.0616   17.5527 H         1 UNK         0.0000 
   2034 H(3)       22.1435  126.0021   15.6728 H         1 UNK         0.0000 
   2035 H(4)       22.1307  128.4724   15.6585 H         1 UNK         0.0000 
   2036 H(5)       23.2735  124.1195   16.4465 H         1 UNK         0.0000 
   2037 H(6)       23.0377  130.4300   16.3534 H         1 UNK         0.0000 
   2038 H(7)       24.5918  132.8691   17.3976 H         1 UNK         0.0000 
   2039 H(8)       23.5168  132.5041   16.1044 H         1 UNK         0.0000 
   2040 H(9)       25.1940  132.9236   15.8236 H         1 UNK         0.0000 
   2041 O(1)       19.8131  122.0175   22.6641 O.3       1 UNK         0.0000 
   2042 O(2)       21.8109  123.2576   16.6201 O.2       1 UNK         0.0000 
   2043 N(1)       19.6297  123.3082   17.2510 N.am      1 UNK         0.0000 
   2044 C(1)       19.7292  122.9493   18.6139 C.ar      1 UNK         0.0000 
   2045 C(2)       20.8113  122.2634   19.1651 C.ar      1 UNK         0.0000 
   2046 C(3)       20.8184  121.9547   20.5223 C.ar      1 UNK         0.0000 
   2047 C(4)       19.7484  122.3173   21.3362 C.ar      1 UNK         0.0000 
   2048 C(5)       18.6527  122.9757   20.7791 C.ar      1 UNK         0.0000 
   2049 C(6)       18.6474  123.2886   19.4273 C.ar      1 UNK         0.0000 
   2050 C(7)       20.6205  123.4611   16.3575 C.2       1 UNK         0.0000 
   2051 C(8)       20.1797  123.8937   14.9848 C.3       1 UNK         0.0000 
   2052 H(1)       21.6519  121.9778   18.5448 H         1 UNK         0.0000 
   2053 H(2)       21.6692  121.4248   20.9325 H         1 UNK         0.0000 
   2054 H(3)       17.8096  123.2458   21.4028 H         1 UNK         0.0000 
   2055 H(4)       17.7968  123.8016   18.9958 H         1 UNK         0.0000 
   2056 H(5)       18.9396  122.0780   23.0699 H         1 UNK         0.0000 
   2057 H(6)       18.7038  123.5530   16.9335 H         1 UNK         0.0000 
   2058 H(7)       20.2579  123.0692   14.3248 H         1 UNK         0.0000 
   2059 H(8)       19.1829  124.2508   14.9645 H         1 UNK         0.0000 
   2060 H(9)       20.8601  124.6168   14.6168 H         1 UNK         0.0000 
   2061 O(1)       22.5366  133.3390   19.4793 O.3       1 UNK         0.0000 
   2062 O(2)       20.5388  127.1702   19.3635 O.2       1 UNK         0.0000 
   2063 N(1)       22.7199  127.7746   19.5512 N.am      1 UNK         0.0000 
   2064 C(1)       22.6205  129.1831   19.5000 C.ar      1 UNK         0.0000 
   2065 C(2)       21.5383  129.8713   18.9517 C.ar      1 UNK         0.0000 
   2066 C(3)       21.5313  131.2631   18.9482 C.ar      1 UNK         0.0000 
   2067 C(4)       22.6013  131.9777   19.4805 C.ar      1 UNK         0.0000 
   2068 C(5)       23.6969  131.2898   20.0007 C.ar      1 UNK         0.0000 
   2069 C(6)       23.7022  129.9022   20.0094 C.ar      1 UNK         0.0000 
   2070 C(7)       21.7291  126.8693   19.5044 C.2       1 UNK         0.0000 
   2071 C(8)       22.1700  125.4352   19.6254 C.3       1 UNK         0.0000 
   2072 H(1)       20.6978  129.3287   18.5370 H         1 UNK         0.0000 
   2073 H(2)       20.6805  131.7796   18.5211 H         1 UNK         0.0000 
   2074 H(3)       24.5401  131.8390   20.4010 H         1 UNK         0.0000 
   2075 H(4)       24.5528  129.3687   20.4154 H         1 UNK         0.0000 
   2076 H(5)       23.4100  133.7216   19.6273 H         1 UNK         0.0000 
   2077 H(6)       23.6459  127.4112   19.7204 H         1 UNK         0.0000 
   2078 H(7)       22.0917  124.9721   18.6762 H         1 UNK         0.0000 
   2079 H(8)       23.1668  125.3370   19.9694 H         1 UNK         0.0000 
   2080 H(9)       21.4895  124.9175   20.2502 H         1 UNK         0.0000 
   2081 O(1)       18.2027  126.8723   20.5721 O.3       1 UNK         0.0000 
   2082 O(2)       16.2049  125.6322   26.6161 O.2       1 UNK         0.0000 
   2083 N(1)       18.3860  125.5816   25.9852 N.am      1 UNK         0.0000 
   2084 C(1)       18.2866  125.9405   24.6223 C.ar      1 UNK         0.0000 
   2085 C(2)       17.2044  126.6264   24.0711 C.ar      1 UNK         0.0000 
   2086 C(3)       17.1974  126.9351   22.7140 C.ar      1 UNK         0.0000 
   2087 C(4)       18.2674  126.5725   21.9000 C.ar      1 UNK         0.0000 
   2088 C(5)       19.3630  125.9141   22.4571 C.ar      1 UNK         0.0000 
   2089 C(6)       19.3683  125.6012   23.8089 C.ar      1 UNK         0.0000 
   2090 C(7)       17.3952  125.4287   26.8787 C.2       1 UNK         0.0000 
   2091 C(8)       17.8361  124.9961   28.2514 C.3       1 UNK         0.0000 
   2092 H(1)       16.3639  126.9120   24.6914 H         1 UNK         0.0000 
   2093 H(2)       16.3466  127.4650   22.3037 H         1 UNK         0.0000 
   2094 H(3)       20.2062  125.6440   21.8334 H         1 UNK         0.0000 
   2095 H(4)       20.2189  125.0881   24.2404 H         1 UNK         0.0000 
   2096 H(5)       19.0761  126.8118   20.1663 H         1 UNK         0.0000 
   2097 H(6)       19.3120  125.3368   26.3027 H         1 UNK         0.0000 
   2098 H(7)       17.7578  125.8206   28.9114 H         1 UNK         0.0000 
   2099 H(8)       18.8329  124.6390   28.2717 H         1 UNK         0.0000 
   2100 H(9)       17.1556  124.2730   28.6194 H         1 UNK         0.0000 
   2101 O(1)       17.0700  130.2331   23.7569 O.3       1 UNK         0.0000 
   2102 O(2)       19.0678  136.4019   23.8727 O.2       1 UNK         0.0000 
   2103 N(1)       16.8866  135.7975   23.6850 N.am      1 UNK         0.0000 
   2104 C(1)       16.9861  134.3890   23.7362 C.ar      1 UNK         0.0000 
   2105 C(2)       18.0682  133.7008   24.2845 C.ar      1 UNK         0.0000 
   2106 C(3)       18.0753  132.3090   24.2881 C.ar      1 UNK         0.0000 
   2107 C(4)       17.0052  131.5944   23.7557 C.ar      1 UNK         0.0000 
   2108 C(5)       15.9096  132.2823   23.2355 C.ar      1 UNK         0.0000 
   2109 C(6)       15.9043  133.6699   23.2268 C.ar      1 UNK         0.0000 
   2110 C(7)       17.8774  136.7028   23.7318 C.2       1 UNK         0.0000 
   2111 C(8)       17.4366  138.1369   23.6108 C.3       1 UNK         0.0000 
   2112 H(1)       18.9088  134.2434   24.6992 H         1 UNK         0.0000 
   2113 H(2)       18.9261  131.7926   24.7151 H         1 UNK         0.0000 
   2114 H(3)       15.0665  131.7331   22.8352 H         1 UNK         0.0000 
   2115 H(4)       15.0537  134.2034   22.8209 H         1 UNK         0.0000 
   2116 H(5)       16.1965  129.8505   23.6089 H         1 UNK         0.0000 
   2117 H(6)       15.9607  136.1610   23.5158 H         1 UNK         0.0000 
   2118 H(7)       17.5148  138.6000   24.5600 H         1 UNK         0.0000 
   2119 H(8)       16.4398  138.2351   23.2668 H         1 UNK         0.0000 
   2120 H(9)       18.1170  138.6546   22.9860 H         1 UNK         0.0000 
   2121 O(1)       21.4039  125.2379    8.3393 O.3       1 UNK         0.0000 
   2122 O(2)       23.4017  126.4780    2.2953 O.2       1 UNK         0.0000 
   2123 N(1)       21.2205  126.5286    2.9262 N.am      1 UNK         0.0000 
   2124 C(1)       21.3200  126.1697    4.2891 C.ar      1 UNK         0.0000 
   2125 C(2)       22.4021  125.4838    4.8403 C.ar      1 UNK         0.0000 
   2126 C(3)       22.4092  125.1751    6.1975 C.ar      1 UNK         0.0000 
   2127 C(4)       21.3391  125.5377    7.0114 C.ar      1 UNK         0.0000 
   2128 C(5)       20.2435  126.1961    6.4543 C.ar      1 UNK         0.0000 
   2129 C(6)       20.2382  126.5090    5.1025 C.ar      1 UNK         0.0000 
   2130 C(7)       22.2113  126.6815    2.0327 C.2       1 UNK         0.0000 
   2131 C(8)       21.7704  127.1141    0.6600 C.3       1 UNK         0.0000 
   2132 H(1)       23.2427  125.1982    4.2200 H         1 UNK         0.0000 
   2133 H(2)       23.2600  124.6452    6.6077 H         1 UNK         0.0000 
   2134 H(3)       19.4004  126.4662    7.0780 H         1 UNK         0.0000 
   2135 H(4)       19.3876  127.0220    4.6710 H         1 UNK         0.0000 
   2136 H(5)       20.5304  125.2984    8.7451 H         1 UNK         0.0000 
   2137 H(6)       20.2946  126.7734    2.6087 H         1 UNK         0.0000 
   2138 H(7)       21.8487  126.2896    0.0000 H         1 UNK         0.0000 
   2139 H(8)       20.7737  127.4712    0.6397 H         1 UNK         0.0000 
   2140 H(9)       22.4509  127.8372    0.2920 H         1 UNK         0.0000 
   2141 O(1)       24.1274  136.5594    5.1545 O.3       1 UNK         0.0000 
   2142 O(2)       22.1295  130.3906    5.0387 O.2       1 UNK         0.0000 
   2143 N(1)       24.3107  130.9950    5.2264 N.am      1 UNK         0.0000 
   2144 C(1)       24.2112  132.4035    5.1752 C.ar      1 UNK         0.0000 
   2145 C(2)       23.1291  133.0917    4.6269 C.ar      1 UNK         0.0000 
   2146 C(3)       23.1220  134.4835    4.6234 C.ar      1 UNK         0.0000 
   2147 C(4)       24.1921  135.1981    5.1557 C.ar      1 UNK         0.0000 
   2148 C(5)       25.2877  134.5102    5.6759 C.ar      1 UNK         0.0000 
   2149 C(6)       25.2930  133.1226    5.6846 C.ar      1 UNK         0.0000 
   2150 C(7)       23.3199  130.0897    5.1796 C.2       1 UNK         0.0000 
   2151 C(8)       23.7608  128.6556    5.3006 C.3       1 UNK         0.0000 
   2152 H(1)       22.2885  132.5491    4.2122 H         1 UNK         0.0000 
   2153 H(2)       22.2712  135.0000    4.1963 H         1 UNK         0.0000 
   2154 H(3)       26.1308  135.0594    6.0762 H         1 UNK         0.0000 
   2155 H(4)       26.1436  132.5891    6.0906 H         1 UNK         0.0000 
   2156 H(5)       25.0008  136.9420    5.3025 H         1 UNK         0.0000 
   2157 H(6)       25.2367  130.6316    5.3956 H         1 UNK         0.0000 
   2158 H(7)       23.6825  128.1925    4.3514 H         1 UNK         0.0000 
   2159 H(8)       24.7575  128.5574    5.6446 H         1 UNK         0.0000 
   2160 H(9)       23.0803  128.1379    5.9254 H         1 UNK         0.0000 
   2161 O(1)       21.3843  144.7750    6.2473 O.3       1 UNK         0.0000 
   2162 O(2)       19.3864  143.5349   12.2913 O.2       1 UNK         0.0000 
   2163 N(1)       21.5676  143.4843   11.6604 N.am      1 UNK         0.0000 
   2164 C(1)       21.4681  143.8432   10.2975 C.ar      1 UNK         0.0000 
   2165 C(2)       20.3860  144.5291    9.7463 C.ar      1 UNK         0.0000 
   2166 C(3)       20.3789  144.8378    8.3892 C.ar      1 UNK         0.0000 
   2167 C(4)       21.4490  144.4752    7.5752 C.ar      1 UNK         0.0000 
   2168 C(5)       22.5446  143.8168    8.1323 C.ar      1 UNK         0.0000 
   2169 C(6)       22.5499  143.5039    9.4841 C.ar      1 UNK         0.0000 
   2170 C(7)       20.5768  143.3315   12.5539 C.2       1 UNK         0.0000 
   2171 C(8)       21.0177  142.8988   13.9266 C.3       1 UNK         0.0000 
   2172 H(1)       19.5454  144.8147   10.3666 H         1 UNK         0.0000 
   2173 H(2)       19.5281  145.3678    7.9789 H         1 UNK         0.0000 
   2174 H(3)       23.3877  143.5467    7.5086 H         1 UNK         0.0000 
   2175 H(4)       23.4005  142.9909    9.9156 H         1 UNK         0.0000 
   2176 H(5)       22.2577  144.7145    5.8415 H         1 UNK         0.0000 
   2177 H(6)       22.4935  143.2395   11.9779 H         1 UNK         0.0000 
   2178 H(7)       20.9394  143.7233   14.5866 H         1 UNK         0.0000 
   2179 H(8)       22.0144  142.5417   13.9469 H         1 UNK         0.0000 
   2180 H(9)       20.3372  142.1757   14.2946 H         1 UNK         0.0000 
   2181 O(1)       25.7377  133.4535    9.4321 O.3       1 UNK         0.0000 
   2182 O(2)       27.7356  139.6223    9.5479 O.2       1 UNK         0.0000 
   2183 N(1)       25.5544  139.0179    9.3602 N.am      1 UNK         0.0000 
   2184 C(1)       25.6539  137.6094    9.4114 C.ar      1 UNK         0.0000 
   2185 C(2)       26.7360  136.9212    9.9597 C.ar      1 UNK         0.0000 
   2186 C(3)       26.7431  135.5294    9.9633 C.ar      1 UNK         0.0000 
   2187 C(4)       25.6730  134.8148    9.4309 C.ar      1 UNK         0.0000 
   2188 C(5)       24.5774  135.5027    8.9107 C.ar      1 UNK         0.0000 
   2189 C(6)       24.5721  136.8903    8.9020 C.ar      1 UNK         0.0000 
   2190 C(7)       26.5452  139.9232    9.4070 C.2       1 UNK         0.0000 
   2191 C(8)       26.1043  141.3573    9.2860 C.3       1 UNK         0.0000 
   2192 H(1)       27.5766  137.4638   10.3744 H         1 UNK         0.0000 
   2193 H(2)       27.5939  135.0130   10.3903 H         1 UNK         0.0000 
   2194 H(3)       23.7343  134.9535    8.5104 H         1 UNK         0.0000 
   2195 H(4)       23.7215  137.4238    8.4961 H         1 UNK         0.0000 
   2196 H(5)       24.8643  133.0709    9.2841 H         1 UNK         0.0000 
   2197 H(6)       24.6284  139.3814    9.1910 H         1 UNK         0.0000 
   2198 H(7)       26.1826  141.8204   10.2352 H         1 UNK         0.0000 
   2199 H(8)       25.1076  141.4555    8.9420 H         1 UNK         0.0000 
   2200 H(9)       26.7848  141.8750    8.6612 H         1 UNK         0.0000 
   2201 O(1)       15.9176  145.6512   15.5017 O.3       1 UNK         0.0000 
   2202 O(2)       17.9154  146.8913    9.4577 O.2       1 UNK         0.0000 
   2203 N(1)       15.7343  146.9419   10.0886 N.am      1 UNK         0.0000 
   2204 C(1)       15.8338  146.5830   11.4515 C.ar      1 UNK         0.0000 
   2205 C(2)       16.9159  145.8971   12.0027 C.ar      1 UNK         0.0000 
   2206 C(3)       16.9229  145.5884   13.3599 C.ar      1 UNK         0.0000 
   2207 C(4)       15.8529  145.9510   14.1738 C.ar      1 UNK         0.0000 
   2208 C(5)       14.7573  146.6094   13.6167 C.ar      1 UNK         0.0000 
   2209 C(6)       14.7520  146.9223   12.2649 C.ar      1 UNK         0.0000 
   2210 C(7)       16.7251  147.0948    9.1951 C.2       1 UNK         0.0000 
   2211 C(8)       16.2842  147.5274    7.8224 C.3       1 UNK         0.0000 
   2212 H(1)       17.7565  145.6115   11.3824 H         1 UNK         0.0000 
   2213 H(2)       17.7738  145.0585   13.7701 H         1 UNK         0.0000 
   2214 H(3)       13.9141  146.8795   14.2404 H         1 UNK         0.0000 
   2215 H(4)       13.9014  147.4353   11.8334 H         1 UNK         0.0000 
   2216 H(5)       15.0442  145.7117   15.9075 H         1 UNK         0.0000 
   2217 H(6)       14.8083  147.1867    9.7711 H         1 UNK         0.0000 
   2218 H(7)       16.3625  146.7029    7.1624 H         1 UNK         0.0000 
   2219 H(8)       15.2874  147.8845    7.8021 H         1 UNK         0.0000 
   2220 H(9)       16.9647  148.2505    7.4544 H         1 UNK         0.0000 
   2221 O(1)       17.0504  142.2904   12.3169 O.3       1 UNK         0.0000 
   2222 O(2)       15.0525  136.1216   12.2011 O.2       1 UNK         0.0000 
   2223 N(1)       17.2337  136.7260   12.3888 N.am      1 UNK         0.0000 
   2224 C(1)       17.1342  138.1344   12.3376 C.ar      1 UNK         0.0000 
   2225 C(2)       16.0521  138.8226   11.7893 C.ar      1 UNK         0.0000 
   2226 C(3)       16.0450  140.2145   11.7858 C.ar      1 UNK         0.0000 
   2227 C(4)       17.1151  140.9291   12.3181 C.ar      1 UNK         0.0000 
   2228 C(5)       18.2107  140.2411   12.8383 C.ar      1 UNK         0.0000 
   2229 C(6)       18.2160  138.8536   12.8470 C.ar      1 UNK         0.0000 
   2230 C(7)       16.2429  135.8207   12.3420 C.2       1 UNK         0.0000 
   2231 C(8)       16.6838  134.3866   12.4630 C.3       1 UNK         0.0000 
   2232 H(1)       15.2115  138.2801   11.3746 H         1 UNK         0.0000 
   2233 H(2)       15.1942  140.7309   11.3587 H         1 UNK         0.0000 
   2234 H(3)       19.0538  140.7904   13.2386 H         1 UNK         0.0000 
   2235 H(4)       19.0666  138.3201   13.2530 H         1 UNK         0.0000 
   2236 H(5)       17.9238  142.6730   12.4649 H         1 UNK         0.0000 
   2237 H(6)       18.1597  136.3625   12.5580 H         1 UNK         0.0000 
   2238 H(7)       16.6055  133.9235   11.5138 H         1 UNK         0.0000 
   2239 H(8)       17.6805  134.2884   12.8070 H         1 UNK         0.0000 
   2240 H(9)       16.0033  133.8689   13.0878 H         1 UNK         0.0000 
   2241 O(1)       21.3843  150.5060   13.4097 O.3       1 UNK         0.0000 
   2242 O(2)       19.3864  149.2659   19.4537 O.2       1 UNK         0.0000 
   2243 N(1)       21.5676  149.2153   18.8228 N.am      1 UNK         0.0000 
   2244 C(1)       21.4681  149.5742   17.4599 C.ar      1 UNK         0.0000 
   2245 C(2)       20.3860  150.2601   16.9087 C.ar      1 UNK         0.0000 
   2246 C(3)       20.3789  150.5688   15.5516 C.ar      1 UNK         0.0000 
   2247 C(4)       21.4490  150.2062   14.7376 C.ar      1 UNK         0.0000 
   2248 C(5)       22.5446  149.5478   15.2947 C.ar      1 UNK         0.0000 
   2249 C(6)       22.5499  149.2349   16.6465 C.ar      1 UNK         0.0000 
   2250 C(7)       20.5768  149.0624   19.7163 C.2       1 UNK         0.0000 
   2251 C(8)       21.0177  148.6298   21.0890 C.3       1 UNK         0.0000 
   2252 H(1)       19.5454  150.5457   17.5290 H         1 UNK         0.0000 
   2253 H(2)       19.5281  151.0987   15.1413 H         1 UNK         0.0000 
   2254 H(3)       23.3877  149.2777   14.6710 H         1 UNK         0.0000 
   2255 H(4)       23.4005  148.7218   17.0780 H         1 UNK         0.0000 
   2256 H(5)       22.2577  150.4455   13.0039 H         1 UNK         0.0000 
   2257 H(6)       22.4935  148.9705   19.1403 H         1 UNK         0.0000 
   2258 H(7)       20.9394  149.4542   21.7490 H         1 UNK         0.0000 
   2259 H(8)       22.0144  148.2727   21.1093 H         1 UNK         0.0000 
   2260 H(9)       20.3372  147.9067   21.4570 H         1 UNK         0.0000 
   2261 O(1)       25.7377  139.1845   16.5945 O.3       1 UNK         0.0000 
   2262 O(2)       27.7356  145.3533   16.7103 O.2       1 UNK         0.0000 
   2263 N(1)       25.5544  144.7489   16.5226 N.am      1 UNK         0.0000 
   2264 C(1)       25.6539  143.3404   16.5738 C.ar      1 UNK         0.0000 
   2265 C(2)       26.7360  142.6522   17.1221 C.ar      1 UNK         0.0000 
   2266 C(3)       26.7431  141.2604   17.1257 C.ar      1 UNK         0.0000 
   2267 C(4)       25.6730  140.5458   16.5933 C.ar      1 UNK         0.0000 
   2268 C(5)       24.5774  141.2337   16.0731 C.ar      1 UNK         0.0000 
   2269 C(6)       24.5721  142.6212   16.0644 C.ar      1 UNK         0.0000 
   2270 C(7)       26.5452  145.6542   16.5694 C.2       1 UNK         0.0000 
   2271 C(8)       26.1043  147.0883   16.4484 C.3       1 UNK         0.0000 
   2272 H(1)       27.5766  143.1947   17.5368 H         1 UNK         0.0000 
   2273 H(2)       27.5939  140.7439   17.5527 H         1 UNK         0.0000 
   2274 H(3)       23.7343  140.6845   15.6728 H         1 UNK         0.0000 
   2275 H(4)       23.7215  143.1548   15.6585 H         1 UNK         0.0000 
   2276 H(5)       24.8643  138.8019   16.4465 H         1 UNK         0.0000 
   2277 H(6)       24.6284  145.1123   16.3534 H         1 UNK         0.0000 
   2278 H(7)       26.1826  147.5514   17.3976 H         1 UNK         0.0000 
   2279 H(8)       25.1076  147.1864   16.1044 H         1 UNK         0.0000 
   2280 H(9)       26.7848  147.6060   15.8236 H         1 UNK         0.0000 
   2281 O(1)       21.4039  136.6998   22.6641 O.3       1 UNK         0.0000 
   2282 O(2)       23.4017  137.9399   16.6201 O.2       1 UNK         0.0000 
   2283 N(1)       21.2205  137.9906   17.2510 N.am      1 UNK         0.0000 
   2284 C(1)       21.3200  137.6316   18.6139 C.ar      1 UNK         0.0000 
   2285 C(2)       22.4021  136.9458   19.1651 C.ar      1 UNK         0.0000 
   2286 C(3)       22.4092  136.6370   20.5223 C.ar      1 UNK         0.0000 
   2287 C(4)       21.3391  136.9997   21.3362 C.ar      1 UNK         0.0000 
   2288 C(5)       20.2435  137.6580   20.7791 C.ar      1 UNK         0.0000 
   2289 C(6)       20.2382  137.9709   19.4273 C.ar      1 UNK         0.0000 
   2290 C(7)       22.2113  138.1434   16.3575 C.2       1 UNK         0.0000 
   2291 C(8)       21.7704  138.5760   14.9848 C.3       1 UNK         0.0000 
   2292 H(1)       23.2427  136.6601   18.5448 H         1 UNK         0.0000 
   2293 H(2)       23.2600  136.1071   20.9325 H         1 UNK         0.0000 
   2294 H(3)       19.4004  137.9281   21.4028 H         1 UNK         0.0000 
   2295 H(4)       19.3876  138.4840   18.9958 H         1 UNK         0.0000 
   2296 H(5)       20.5304  136.7604   23.0699 H         1 UNK         0.0000 
   2297 H(6)       20.2946  138.2353   16.9335 H         1 UNK         0.0000 
   2298 H(7)       21.8487  137.7516   14.3248 H         1 UNK         0.0000 
   2299 H(8)       20.7737  138.9332   14.9645 H         1 UNK         0.0000 
   2300 H(9)       22.4509  139.2991   14.6168 H         1 UNK         0.0000 
   2301 O(1)       24.1274  148.0213   19.4793 O.3       1 UNK         0.0000 
   2302 O(2)       22.1295  141.8526   19.3635 O.2       1 UNK         0.0000 
   2303 N(1)       24.3107  142.4570   19.5512 N.am      1 UNK         0.0000 
   2304 C(1)       24.2112  143.8654   19.5000 C.ar      1 UNK         0.0000 
   2305 C(2)       23.1291  144.5536   18.9517 C.ar      1 UNK         0.0000 
   2306 C(3)       23.1220  145.9454   18.9482 C.ar      1 UNK         0.0000 
   2307 C(4)       24.1921  146.6600   19.4805 C.ar      1 UNK         0.0000 
   2308 C(5)       25.2877  145.9721   20.0007 C.ar      1 UNK         0.0000 
   2309 C(6)       25.2930  144.5846   20.0094 C.ar      1 UNK         0.0000 
   2310 C(7)       23.3199  141.5516   19.5044 C.2       1 UNK         0.0000 
   2311 C(8)       23.7608  140.1175   19.6254 C.3       1 UNK         0.0000 
   2312 H(1)       22.2885  144.0111   18.5370 H         1 UNK         0.0000 
   2313 H(2)       22.2712  146.4619   18.5211 H         1 UNK         0.0000 
   2314 H(3)       26.1308  146.5214   20.4010 H         1 UNK         0.0000 
   2315 H(4)       26.1436  144.0510   20.4154 H         1 UNK         0.0000 
   2316 H(5)       25.0008  148.4039   19.6273 H         1 UNK         0.0000 
   2317 H(6)       25.2367  142.0935   19.7204 H         1 UNK         0.0000 
   2318 H(7)       23.6825  139.6544   18.6762 H         1 UNK         0.0000 
   2319 H(8)       24.7575  140.0194   19.9694 H         1 UNK         0.0000 
   2320 H(9)       23.0803  139.5998   20.2502 H         1 UNK         0.0000 
   2321 O(1)       19.7935  141.5546   20.5721 O.3       1 UNK         0.0000 
   2322 O(2)       17.7957  140.3145   26.6161 O.2       1 UNK         0.0000 
   2323 N(1)       19.9768  140.2639   25.9852 N.am      1 UNK         0.0000 
   2324 C(1)       19.8773  140.6228   24.6223 C.ar      1 UNK         0.0000 
   2325 C(2)       18.7952  141.3087   24.0711 C.ar      1 UNK         0.0000 
   2326 C(3)       18.7882  141.6174   22.7140 C.ar      1 UNK         0.0000 
   2327 C(4)       19.8582  141.2548   21.9000 C.ar      1 UNK         0.0000 
   2328 C(5)       20.9538  140.5964   22.4571 C.ar      1 UNK         0.0000 
   2329 C(6)       20.9591  140.2835   23.8089 C.ar      1 UNK         0.0000 
   2330 C(7)       18.9860  140.1111   26.8787 C.2       1 UNK         0.0000 
   2331 C(8)       19.4269  139.6784   28.2514 C.3       1 UNK         0.0000 
   2332 H(1)       17.9547  141.5943   24.6914 H         1 UNK         0.0000 
   2333 H(2)       17.9373  142.1474   22.3037 H         1 UNK         0.0000 
   2334 H(3)       21.7970  140.3263   21.8334 H         1 UNK         0.0000 
   2335 H(4)       21.8097  139.7705   24.2404 H         1 UNK         0.0000 
   2336 H(5)       20.6669  141.4941   20.1663 H         1 UNK         0.0000 
   2337 H(6)       20.9028  140.0191   26.3027 H         1 UNK         0.0000 
   2338 H(7)       19.3486  140.5029   28.9114 H         1 UNK         0.0000 
   2339 H(8)       20.4237  139.3213   28.2717 H         1 UNK         0.0000 
   2340 H(9)       18.7464  138.9553   28.6194 H         1 UNK         0.0000 
   2341 O(1)       18.6607  144.9154   23.7569 O.3       1 UNK         0.0000 
   2342 O(2)       20.6586  151.0842   23.8727 O.2       1 UNK         0.0000 
   2343 N(1)       18.4774  150.4798   23.6850 N.am      1 UNK         0.0000 
   2344 C(1)       18.5769  149.0714   23.7362 C.ar      1 UNK         0.0000 
   2345 C(2)       19.6590  148.3832   24.2845 C.ar      1 UNK         0.0000 
   2346 C(3)       19.6661  146.9914   24.2881 C.ar      1 UNK         0.0000 
   2347 C(4)       18.5960  146.2767   23.7557 C.ar      1 UNK         0.0000 
   2348 C(5)       17.5004  146.9647   23.2355 C.ar      1 UNK         0.0000 
   2349 C(6)       17.4951  148.3522   23.2268 C.ar      1 UNK         0.0000 
   2350 C(7)       19.4682  151.3851   23.7318 C.2       1 UNK         0.0000 
   2351 C(8)       19.0273  152.8193   23.6108 C.3       1 UNK         0.0000 
   2352 H(1)       20.4996  148.9257   24.6992 H         1 UNK         0.0000 
   2353 H(2)       20.5169  146.4749   24.7151 H         1 UNK         0.0000 
   2354 H(3)       16.6573  146.4154   22.8352 H         1 UNK         0.0000 
   2355 H(4)       16.6445  148.8857   22.8209 H         1 UNK         0.0000 
   2356 H(5)       17.7873  144.5328   23.6089 H         1 UNK         0.0000 
   2357 H(6)       17.5514  150.8433   23.5158 H         1 UNK         0.0000 
   2358 H(7)       19.1056  153.2824   24.5600 H         1 UNK         0.0000 
   2359 H(8)       18.0306  152.9174   23.2668 H         1 UNK         0.0000 
   2360 H(9)       19.7078  153.3369   22.9860 H         1 UNK         0.0000 
   2361 O(1)       22.9946  139.9202    8.3393 O.3       1 UNK         0.0000 
   2362 O(2)       24.9925  141.1603    2.2953 O.2       1 UNK         0.0000 
   2363 N(1)       22.8113  141.2110    2.9262 N.am      1 UNK         0.0000 
   2364 C(1)       22.9108  140.8520    4.2891 C.ar      1 UNK         0.0000 
   2365 C(2)       23.9929  140.1662    4.8403 C.ar      1 UNK         0.0000 
   2366 C(3)       23.9999  139.8574    6.1975 C.ar      1 UNK         0.0000 
   2367 C(4)       22.9299  140.2201    7.0114 C.ar      1 UNK         0.0000 
   2368 C(5)       21.8343  140.8784    6.4543 C.ar      1 UNK         0.0000 
   2369 C(6)       21.8290  141.1913    5.1025 C.ar      1 UNK         0.0000 
   2370 C(7)       23.8021  141.3638    2.0327 C.2       1 UNK         0.0000 
   2371 C(8)       23.3612  141.7964    0.6600 C.3       1 UNK         0.0000 
   2372 H(1)       24.8335  139.8805    4.2200 H         1 UNK         0.0000 
   2373 H(2)       24.8508  139.3275    6.6077 H         1 UNK         0.0000 
   2374 H(3)       20.9911  141.1485    7.0780 H         1 UNK         0.0000 
   2375 H(4)       20.9784  141.7044    4.6710 H         1 UNK         0.0000 
   2376 H(5)       22.1212  139.9808    8.7451 H         1 UNK         0.0000 
   2377 H(6)       21.8853  141.4557    2.6087 H         1 UNK         0.0000 
   2378 H(7)       23.4395  140.9720    0.0000 H         1 UNK         0.0000 
   2379 H(8)       22.3644  142.1536    0.6397 H         1 UNK         0.0000 
   2380 H(9)       24.0417  142.5195    0.2920 H         1 UNK         0.0000 
   2381 O(1)       25.7181  151.2417    5.1545 O.3       1 UNK         0.0000 
   2382 O(2)       23.7203  145.0729    5.0387 O.2       1 UNK         0.0000 
   2383 N(1)       25.9015  145.6774    5.2264 N.am      1 UNK         0.0000 
   2384 C(1)       25.8020  147.0858    5.1752 C.ar      1 UNK         0.0000 
   2385 C(2)       24.7199  147.7740    4.6269 C.ar      1 UNK         0.0000 
   2386 C(3)       24.7128  149.1658    4.6234 C.ar      1 UNK         0.0000 
   2387 C(4)       25.7829  149.8804    5.1557 C.ar      1 UNK         0.0000 
   2388 C(5)       26.8785  149.1925    5.6759 C.ar      1 UNK         0.0000 
   2389 C(6)       26.8838  147.8050    5.6846 C.ar      1 UNK         0.0000 
   2390 C(7)       24.9107  144.7720    5.1796 C.2       1 UNK         0.0000 
   2391 C(8)       25.3516  143.3379    5.3006 C.3       1 UNK         0.0000 
   2392 H(1)       23.8793  147.2315    4.2122 H         1 UNK         0.0000 
   2393 H(2)       23.8620  149.6823    4.1963 H         1 UNK         0.0000 
   2394 H(3)       27.7216  149.7418    6.0762 H         1 UNK         0.0000 
   2395 H(4)       27.7344  147.2714    6.0906 H         1 UNK         0.0000 
   2396 H(5)       26.5916  151.6243    5.3025 H         1 UNK         0.0000 
   2397 H(6)       26.8274  145.3139    5.3956 H         1 UNK         0.0000 
   2398 H(7)       25.2733  142.8748    4.3514 H         1 UNK         0.0000 
   2399 H(8)       26.3483  143.2398    5.6446 H         1 UNK         0.0000 
   2400 H(9)       24.6711  142.8202    5.9254 H         1 UNK         0.0000 
   2401 O(1)       14.1442   12.6340    6.2473 O.3       1 UNK         0.0000 
   2402 O(2)       12.1464   11.3940   12.2913 O.2       1 UNK         0.0000 
   2403 N(1)       14.3275   11.3433   11.6604 N.am      1 UNK         0.0000 
   2404 C(1)       14.2281   11.7022   10.2975 C.ar      1 UNK         0.0000 
   2405 C(2)       13.1459   12.3881    9.7463 C.ar      1 UNK         0.0000 
   2406 C(3)       13.1389   12.6969    8.3892 C.ar      1 UNK         0.0000 
   2407 C(4)       14.2089   12.3342    7.5752 C.ar      1 UNK         0.0000 
   2408 C(5)       15.3045   11.6758    8.1323 C.ar      1 UNK         0.0000 
   2409 C(6)       15.3098   11.3630    9.4841 C.ar      1 UNK         0.0000 
   2410 C(7)       13.3368   11.1905   12.5539 C.2       1 UNK         0.0000 
   2411 C(8)       13.7776   10.7579   13.9266 C.3       1 UNK         0.0000 
   2412 H(1)       12.3054   12.6738   10.3666 H         1 UNK         0.0000 
   2413 H(2)       12.2881   13.2268    7.9789 H         1 UNK         0.0000 
   2414 H(3)       16.1477   11.4057    7.5086 H         1 UNK         0.0000 
   2415 H(4)       16.1604   10.8499    9.9156 H         1 UNK         0.0000 
   2416 H(5)       15.0176   12.5735    5.8415 H         1 UNK         0.0000 
   2417 H(6)       15.2535   11.0986   11.9779 H         1 UNK         0.0000 
   2418 H(7)       13.6993   11.5823   14.5866 H         1 UNK         0.0000 
   2419 H(8)       14.7744   10.4007   13.9469 H         1 UNK         0.0000 
   2420 H(9)       13.0971   10.0347   14.2946 H         1 UNK         0.0000 
   2421 O(1)       18.4977    1.3125    9.4321 O.3       1 UNK         0.0000 
   2422 O(2)       20.4955    7.4813    9.5479 O.2       1 UNK         0.0000 
   2423 N(1)       18.3144    6.8769    9.3602 N.am      1 UNK         0.0000 
   2424 C(1)       18.4138    5.4685    9.4114 C.ar      1 UNK         0.0000 
   2425 C(2)       19.4960    4.7803    9.9597 C.ar      1 UNK         0.0000 
   2426 C(3)       19.5030    3.3885    9.9633 C.ar      1 UNK         0.0000 
   2427 C(4)       18.4330    2.6738    9.4309 C.ar      1 UNK         0.0000 
   2428 C(5)       17.3374    3.3618    8.9107 C.ar      1 UNK         0.0000 
   2429 C(6)       17.3321    4.7493    8.9020 C.ar      1 UNK         0.0000 
   2430 C(7)       19.3051    7.7822    9.4070 C.2       1 UNK         0.0000 
   2431 C(8)       18.8643    9.2163    9.2860 C.3       1 UNK         0.0000 
   2432 H(1)       20.3365    5.3228   10.3744 H         1 UNK         0.0000 
   2433 H(2)       20.3538    2.8720   10.3903 H         1 UNK         0.0000 
   2434 H(3)       16.4942    2.8125    8.5104 H         1 UNK         0.0000 
   2435 H(4)       16.4814    5.2828    8.4961 H         1 UNK         0.0000 
   2436 H(5)       17.6243    0.9299    9.2841 H         1 UNK         0.0000 
   2437 H(6)       17.3884    7.2404    9.1910 H         1 UNK         0.0000 
   2438 H(7)       18.9425    9.6795   10.2352 H         1 UNK         0.0000 
   2439 H(8)       17.8675    9.3145    8.9420 H         1 UNK         0.0000 
   2440 H(9)       19.5448    9.7340    8.6612 H         1 UNK         0.0000 
   2441 O(1)        8.6776   13.5102   15.5017 O.3       1 UNK         0.0000 
   2442 O(2)       10.6754   14.7503    9.4577 O.2       1 UNK         0.0000 
   2443 N(1)        8.4943   14.8009   10.0886 N.am      1 UNK         0.0000 
   2444 C(1)        8.5937   14.4420   11.4515 C.ar      1 UNK         0.0000 
   2445 C(2)        9.6759   13.7561   12.0027 C.ar      1 UNK         0.0000 
   2446 C(3)        9.6829   13.4474   13.3599 C.ar      1 UNK         0.0000 
   2447 C(4)        8.6129   13.8100   14.1738 C.ar      1 UNK         0.0000 
   2448 C(5)        7.5173   14.4684   13.6167 C.ar      1 UNK         0.0000 
   2449 C(6)        7.5120   14.7813   12.2649 C.ar      1 UNK         0.0000 
   2450 C(7)        9.4850   14.9538    9.1951 C.2       1 UNK         0.0000 
   2451 C(8)        9.0442   15.3864    7.8224 C.3       1 UNK         0.0000 
   2452 H(1)       10.5164   13.4705   11.3824 H         1 UNK         0.0000 
   2453 H(2)       10.5337   12.9175   13.7701 H         1 UNK         0.0000 
   2454 H(3)        6.6741   14.7385   14.2404 H         1 UNK         0.0000 
   2455 H(4)        6.6613   15.2944   11.8334 H         1 UNK         0.0000 
   2456 H(5)        7.8041   13.5707   15.9075 H         1 UNK         0.0000 
   2457 H(6)        7.5683   15.0457    9.7711 H         1 UNK         0.0000 
   2458 H(7)        9.1224   14.5620    7.1624 H         1 UNK         0.0000 
   2459 H(8)        8.0474   15.7436    7.8021 H         1 UNK         0.0000 
   2460 H(9)        9.7247   16.1095    7.4544 H         1 UNK         0.0000 
   2461 O(1)        9.8103   10.1494   12.3169 O.3       1 UNK         0.0000 
   2462 O(2)        7.8125    3.9806   12.2011 O.2       1 UNK         0.0000 
   2463 N(1)        9.9936    4.5850   12.3888 N.am      1 UNK         0.0000 
   2464 C(1)        9.8942    5.9935   12.3376 C.ar      1 UNK         0.0000 
   2465 C(2)        8.8120    6.6817   11.7893 C.ar      1 UNK         0.0000 
   2466 C(3)        8.8050    8.0735   11.7858 C.ar      1 UNK         0.0000 
   2467 C(4)        9.8750    8.7881   12.3181 C.ar      1 UNK         0.0000 
   2468 C(5)       10.9706    8.1002   12.8383 C.ar      1 UNK         0.0000 
   2469 C(6)       10.9759    6.7126   12.8470 C.ar      1 UNK         0.0000 
   2470 C(7)        9.0029    3.6797   12.3420 C.2       1 UNK         0.0000 
   2471 C(8)        9.4437    2.2456   12.4630 C.3       1 UNK         0.0000 
   2472 H(1)        7.9715    6.1391   11.3746 H         1 UNK         0.0000 
   2473 H(2)        7.9542    8.5900   11.3587 H         1 UNK         0.0000 
   2474 H(3)       11.8138    8.6494   13.2386 H         1 UNK         0.0000 
   2475 H(4)       11.8266    6.1791   13.2530 H         1 UNK         0.0000 
   2476 H(5)       10.6837   10.5320   12.4649 H         1 UNK         0.0000 
   2477 H(6)       10.9196    4.2215   12.5580 H         1 UNK         0.0000 
   2478 H(7)        9.3655    1.7825   11.5138 H         1 UNK         0.0000 
   2479 H(8)       10.4405    2.1474   12.8070 H         1 UNK         0.0000 
   2480 H(9)        8.7632    1.7279   13.0878 H         1 UNK         0.0000 
   2481 O(1)       14.1442   18.3650   13.4097 O.3       1 UNK         0.0000 
   2482 O(2)       12.1464   17.1249   19.4537 O.2       1 UNK         0.0000 
   2483 N(1)       14.3275   17.0743   18.8228 N.am      1 UNK         0.0000 
   2484 C(1)       14.2281   17.4332   17.4599 C.ar      1 UNK         0.0000 
   2485 C(2)       13.1459   18.1191   16.9087 C.ar      1 UNK         0.0000 
   2486 C(3)       13.1389   18.4278   15.5516 C.ar      1 UNK         0.0000 
   2487 C(4)       14.2089   18.0652   14.7376 C.ar      1 UNK         0.0000 
   2488 C(5)       15.3045   17.4068   15.2947 C.ar      1 UNK         0.0000 
   2489 C(6)       15.3098   17.0939   16.6465 C.ar      1 UNK         0.0000 
   2490 C(7)       13.3368   16.9215   19.7163 C.2       1 UNK         0.0000 
   2491 C(8)       13.7776   16.4888   21.0890 C.3       1 UNK         0.0000 
   2492 H(1)       12.3054   18.4047   17.5290 H         1 UNK         0.0000 
   2493 H(2)       12.2881   18.9577   15.1413 H         1 UNK         0.0000 
   2494 H(3)       16.1477   17.1367   14.6710 H         1 UNK         0.0000 
   2495 H(4)       16.1604   16.5809   17.0780 H         1 UNK         0.0000 
   2496 H(5)       15.0176   18.3045   13.0039 H         1 UNK         0.0000 
   2497 H(6)       15.2535   16.8295   19.1403 H         1 UNK         0.0000 
   2498 H(7)       13.6993   17.3133   21.7490 H         1 UNK         0.0000 
   2499 H(8)       14.7744   16.1317   21.1093 H         1 UNK         0.0000 
   2500 H(9)       13.0971   15.7657   21.4570 H         1 UNK         0.0000 
   2501 O(1)       18.4977    7.0435   16.5945 O.3       1 UNK         0.0000 
   2502 O(2)       20.4955   13.2123   16.7103 O.2       1 UNK         0.0000 
   2503 N(1)       18.3144   12.6079   16.5226 N.am      1 UNK         0.0000 
   2504 C(1)       18.4138   11.1994   16.5738 C.ar      1 UNK         0.0000 
   2505 C(2)       19.4960   10.5112   17.1221 C.ar      1 UNK         0.0000 
   2506 C(3)       19.5030    9.1194   17.1257 C.ar      1 UNK         0.0000 
   2507 C(4)       18.4330    8.4048   16.5933 C.ar      1 UNK         0.0000 
   2508 C(5)       17.3374    9.0927   16.0731 C.ar      1 UNK         0.0000 
   2509 C(6)       17.3321   10.4803   16.0644 C.ar      1 UNK         0.0000 
   2510 C(7)       19.3051   13.5132   16.5694 C.2       1 UNK         0.0000 
   2511 C(8)       18.8643   14.9473   16.4484 C.3       1 UNK         0.0000 
   2512 H(1)       20.3365   11.0538   17.5368 H         1 UNK         0.0000 
   2513 H(2)       20.3538    8.6029   17.5527 H         1 UNK         0.0000 
   2514 H(3)       16.4942    8.5435   15.6728 H         1 UNK         0.0000 
   2515 H(4)       16.4814   11.0138   15.6585 H         1 UNK         0.0000 
   2516 H(5)       17.6243    6.6609   16.4465 H         1 UNK         0.0000 
   2517 H(6)       17.3884   12.9713   16.3534 H         1 UNK         0.0000 
   2518 H(7)       18.9425   15.4104   17.3976 H         1 UNK         0.0000 
   2519 H(8)       17.8675   15.0455   16.1044 H         1 UNK         0.0000 
   2520 H(9)       19.5448   15.4650   15.8236 H         1 UNK         0.0000 
   2521 O(1)       14.1638    4.5589   22.6641 O.3       1 UNK         0.0000 
   2522 O(2)       16.1616    5.7989   16.6201 O.2       1 UNK         0.0000 
   2523 N(1)       13.9805    5.8496   17.2510 N.am      1 UNK         0.0000 
   2524 C(1)       14.0799    5.4907   18.6139 C.ar      1 UNK         0.0000 
   2525 C(2)       15.1621    4.8048   19.1651 C.ar      1 UNK         0.0000 
   2526 C(3)       15.1691    4.4960   20.5223 C.ar      1 UNK         0.0000 
   2527 C(4)       14.0991    4.8587   21.3362 C.ar      1 UNK         0.0000 
   2528 C(5)       13.0035    5.5171   20.7791 C.ar      1 UNK         0.0000 
   2529 C(6)       12.9982    5.8299   19.4273 C.ar      1 UNK         0.0000 
   2530 C(7)       14.9712    6.0024   16.3575 C.2       1 UNK         0.0000 
   2531 C(8)       14.5304    6.4350   14.9848 C.3       1 UNK         0.0000 
   2532 H(1)       16.0026    4.5191   18.5448 H         1 UNK         0.0000 
   2533 H(2)       16.0199    3.9661   20.9325 H         1 UNK         0.0000 
   2534 H(3)       12.1603    5.7872   21.4028 H         1 UNK         0.0000 
   2535 H(4)       12.1476    6.3430   18.9958 H         1 UNK         0.0000 
   2536 H(5)       13.2904    4.6194   23.0699 H         1 UNK         0.0000 
   2537 H(6)       13.0545    6.0943   16.9335 H         1 UNK         0.0000 
   2538 H(7)       14.6087    5.6106   14.3248 H         1 UNK         0.0000 
   2539 H(8)       13.5336    6.7922   14.9645 H         1 UNK         0.0000 
   2540 H(9)       15.2109    7.1582   14.6168 H         1 UNK         0.0000 
   2541 O(1)       16.8873   15.8804   19.4793 O.3       1 UNK         0.0000 
   2542 O(2)       14.8895    9.7116   19.3635 O.2       1 UNK         0.0000 
   2543 N(1)       17.0706   10.3160   19.5512 N.am      1 UNK         0.0000 
   2544 C(1)       16.9712   11.7244   19.5000 C.ar      1 UNK         0.0000 
   2545 C(2)       15.8890   12.4126   18.9517 C.ar      1 UNK         0.0000 
   2546 C(3)       15.8820   13.8044   18.9482 C.ar      1 UNK         0.0000 
   2547 C(4)       16.9520   14.5191   19.4805 C.ar      1 UNK         0.0000 
   2548 C(5)       18.0476   13.8311   20.0007 C.ar      1 UNK         0.0000 
   2549 C(6)       18.0529   12.4436   20.0094 C.ar      1 UNK         0.0000 
   2550 C(7)       16.0799    9.4107   19.5044 C.2       1 UNK         0.0000 
   2551 C(8)       16.5207    7.9766   19.6254 C.3       1 UNK         0.0000 
   2552 H(1)       15.0485   11.8701   18.5370 H         1 UNK         0.0000 
   2553 H(2)       15.0312   14.3209   18.5211 H         1 UNK         0.0000 
   2554 H(3)       18.8908   14.3804   20.4010 H         1 UNK         0.0000 
   2555 H(4)       18.9036   11.9101   20.4154 H         1 UNK         0.0000 
   2556 H(5)       17.7607   16.2630   19.6273 H         1 UNK         0.0000 
   2557 H(6)       17.9966    9.9525   19.7204 H         1 UNK         0.0000 
   2558 H(7)       16.4425    7.5134   18.6762 H         1 UNK         0.0000 
   2559 H(8)       17.5175    7.8784   19.9694 H         1 UNK         0.0000 
   2560 H(9)       15.8402    7.4589   20.2502 H         1 UNK         0.0000 
   2561 O(1)       12.5534    9.4136   20.5721 O.3       1 UNK         0.0000 
   2562 O(2)       10.5556    8.1736   26.6161 O.2       1 UNK         0.0000 
   2563 N(1)       12.7367    8.1229   25.9852 N.am      1 UNK         0.0000 
   2564 C(1)       12.6373    8.4818   24.6223 C.ar      1 UNK         0.0000 
   2565 C(2)       11.5551    9.1677   24.0711 C.ar      1 UNK         0.0000 
   2566 C(3)       11.5481    9.4765   22.7140 C.ar      1 UNK         0.0000 
   2567 C(4)       12.6181    9.1138   21.9000 C.ar      1 UNK         0.0000 
   2568 C(5)       13.7137    8.4554   22.4571 C.ar      1 UNK         0.0000 
   2569 C(6)       13.7190    8.1426   23.8089 C.ar      1 UNK         0.0000 
   2570 C(7)       11.7460    7.9701   26.8787 C.2       1 UNK         0.0000 
   2571 C(8)       12.1868    7.5375   28.2514 C.3       1 UNK         0.0000 
   2572 H(1)       10.7146    9.4534   24.6914 H         1 UNK         0.0000 
   2573 H(2)       10.6973   10.0064   22.3037 H         1 UNK         0.0000 
   2574 H(3)       14.5569    8.1853   21.8334 H         1 UNK         0.0000 
   2575 H(4)       14.5697    7.6295   24.2404 H         1 UNK         0.0000 
   2576 H(5)       13.4269    9.3531   20.1663 H         1 UNK         0.0000 
   2577 H(6)       13.6627    7.8782   26.3027 H         1 UNK         0.0000 
   2578 H(7)       12.1086    8.3619   28.9114 H         1 UNK         0.0000 
   2579 H(8)       13.1836    7.1803   28.2717 H         1 UNK         0.0000 
   2580 H(9)       11.5063    6.8143   28.6194 H         1 UNK         0.0000 
   2581 O(1)       11.4207   12.7745   23.7569 O.3       1 UNK         0.0000 
   2582 O(2)       13.4185   18.9433   23.8727 O.2       1 UNK         0.0000 
   2583 N(1)       11.2374   18.3389   23.6850 N.am      1 UNK         0.0000 
   2584 C(1)       11.3368   16.9304   23.7362 C.ar      1 UNK         0.0000 
   2585 C(2)       12.4190   16.2422   24.2845 C.ar      1 UNK         0.0000 
   2586 C(3)       12.4260   14.8504   24.2881 C.ar      1 UNK         0.0000 
   2587 C(4)       11.3560   14.1358   23.7557 C.ar      1 UNK         0.0000 
   2588 C(5)       10.2604   14.8237   23.2355 C.ar      1 UNK         0.0000 
   2589 C(6)       10.2551   16.2112   23.2268 C.ar      1 UNK         0.0000 
   2590 C(7)       12.2281   19.2442   23.7318 C.2       1 UNK         0.0000 
   2591 C(8)       11.7873   20.6783   23.6108 C.3       1 UNK         0.0000 
   2592 H(1)       13.2595   16.7847   24.6992 H         1 UNK         0.0000 
   2593 H(2)       13.2768   14.3339   24.7151 H         1 UNK         0.0000 
   2594 H(3)        9.4172   14.2744   22.8352 H         1 UNK         0.0000 
   2595 H(4)        9.4044   16.7448   22.8209 H         1 UNK         0.0000 
   2596 H(5)       10.5473   12.3919   23.6089 H         1 UNK         0.0000 
   2597 H(6)       10.3114   18.7023   23.5158 H         1 UNK         0.0000 
   2598 H(7)       11.8655   21.1414   24.5600 H         1 UNK         0.0000 
   2599 H(8)       10.7905   20.7764   23.2668 H         1 UNK         0.0000 
   2600 H(9)       12.4678   21.1960   22.9860 H         1 UNK         0.0000 
   2601 O(1)       15.7546    7.7793    8.3393 O.3       1 UNK         0.0000 
   2602 O(2)       17.7524    9.0193    2.2953 O.2       1 UNK         0.0000 
   2603 N(1)       15.5713    9.0700    2.9262 N.am      1 UNK         0.0000 
   2604 C(1)       15.6707    8.7111    4.2891 C.ar      1 UNK         0.0000 
   2605 C(2)       16.7529    8.0252    4.8403 C.ar      1 UNK         0.0000 
   2606 C(3)       16.7599    7.7164    6.1975 C.ar      1 UNK         0.0000 
   2607 C(4)       15.6899    8.0791    7.0114 C.ar      1 UNK         0.0000 
   2608 C(5)       14.5943    8.7375    6.4543 C.ar      1 UNK         0.0000 
   2609 C(6)       14.5890    9.0503    5.1025 C.ar      1 UNK         0.0000 
   2610 C(7)       16.5620    9.2228    2.0327 C.2       1 UNK         0.0000 
   2611 C(8)       16.1212    9.6554    0.6600 C.3       1 UNK         0.0000 
   2612 H(1)       17.5934    7.7395    4.2200 H         1 UNK         0.0000 
   2613 H(2)       17.6107    7.1865    6.6077 H         1 UNK         0.0000 
   2614 H(3)       13.7511    9.0076    7.0780 H         1 UNK         0.0000 
   2615 H(4)       13.7383    9.5634    4.6710 H         1 UNK         0.0000 
   2616 H(5)       14.8811    7.8398    8.7451 H         1 UNK         0.0000 
   2617 H(6)       14.6453    9.3147    2.6087 H         1 UNK         0.0000 
   2618 H(7)       16.1994    8.8310    0.0000 H         1 UNK         0.0000 
   2619 H(8)       15.1244   10.0126    0.6397 H         1 UNK         0.0000 
   2620 H(9)       16.8017   10.3786    0.2920 H         1 UNK         0.0000 
   2621 O(1)       18.4781   19.1008    5.1545 O.3       1 UNK         0.0000 
   2622 O(2)       16.4803   12.9320    5.0387 O.2       1 UNK         0.0000 
   2623 N(1)       18.6614   13.5364    5.2264 N.am      1 UNK         0.0000 
   2624 C(1)       18.5620   14.9448    5.1752 C.ar      1 UNK         0.0000 
   2625 C(2)       17.4798   15.6330    4.6269 C.ar      1 UNK         0.0000 
   2626 C(3)       17.4728   17.0248    4.6234 C.ar      1 UNK         0.0000 
   2627 C(4)       18.5428   17.7395    5.1557 C.ar      1 UNK         0.0000 
   2628 C(5)       19.6384   17.0515    5.6759 C.ar      1 UNK         0.0000 
   2629 C(6)       19.6437   15.6640    5.6846 C.ar      1 UNK         0.0000 
   2630 C(7)       17.6706   12.6311    5.1796 C.2       1 UNK         0.0000 
   2631 C(8)       18.1115   11.1969    5.3006 C.3       1 UNK         0.0000 
   2632 H(1)       16.6393   15.0905    4.2122 H         1 UNK         0.0000 
   2633 H(2)       16.6220   17.5413    4.1963 H         1 UNK         0.0000 
   2634 H(3)       20.4816   17.6008    6.0762 H         1 UNK         0.0000 
   2635 H(4)       20.4943   15.1305    6.0906 H         1 UNK         0.0000 
   2636 H(5)       19.3515   19.4834    5.3025 H         1 UNK         0.0000 
   2637 H(6)       19.5874   13.1729    5.3956 H         1 UNK         0.0000 
   2638 H(7)       18.0332   10.7338    4.3514 H         1 UNK         0.0000 
   2639 H(8)       19.1083   11.0988    5.6446 H         1 UNK         0.0000 
   2640 H(9)       17.4310   10.6793    5.9254 H         1 UNK         0.0000 
   2641 O(1)       15.7350   27.3164    6.2473 O.3       1 UNK         0.0000 
   2642 O(2)       13.7372   26.0763   12.2913 O.2       1 UNK         0.0000 
   2643 N(1)       15.9183   26.0256   11.6604 N.am      1 UNK         0.0000 
   2644 C(1)       15.8189   26.3846   10.2975 C.ar      1 UNK         0.0000 
   2645 C(2)       14.7367   27.0704    9.7463 C.ar      1 UNK         0.0000 
   2646 C(3)       14.7297   27.3792    8.3892 C.ar      1 UNK         0.0000 
   2647 C(4)       15.7997   27.0165    7.5752 C.ar      1 UNK         0.0000 
   2648 C(5)       16.8953   26.3582    8.1323 C.ar      1 UNK         0.0000 
   2649 C(6)       16.9006   26.0453    9.4841 C.ar      1 UNK         0.0000 
   2650 C(7)       14.9275   25.8728   12.5539 C.2       1 UNK         0.0000 
   2651 C(8)       15.3684   25.4402   13.9266 C.3       1 UNK         0.0000 
   2652 H(1)       13.8962   27.3561   10.3666 H         1 UNK         0.0000 
   2653 H(2)       13.8789   27.9091    7.9789 H         1 UNK         0.0000 
   2654 H(3)       17.7385   26.0881    7.5086 H         1 UNK         0.0000 
   2655 H(4)       17.7512   25.5322    9.9156 H         1 UNK         0.0000 
   2656 H(5)       16.6084   27.2558    5.8415 H         1 UNK         0.0000 
   2657 H(6)       16.8443   25.7809   11.9779 H         1 UNK         0.0000 
   2658 H(7)       15.2901   26.2646   14.5866 H         1 UNK         0.0000 
   2659 H(8)       16.3652   25.0830   13.9469 H         1 UNK         0.0000 
   2660 H(9)       14.6879   24.7171   14.2946 H         1 UNK         0.0000 
   2661 O(1)       20.0885   15.9949    9.4321 O.3       1 UNK         0.0000 
   2662 O(2)       22.0863   22.1637    9.5479 O.2       1 UNK         0.0000 
   2663 N(1)       19.9051   21.5592    9.3602 N.am      1 UNK         0.0000 
   2664 C(1)       20.0046   20.1508    9.4114 C.ar      1 UNK         0.0000 
   2665 C(2)       21.0868   19.4626    9.9597 C.ar      1 UNK         0.0000 
   2666 C(3)       21.0938   18.0708    9.9633 C.ar      1 UNK         0.0000 
   2667 C(4)       20.0238   17.3562    9.4309 C.ar      1 UNK         0.0000 
   2668 C(5)       18.9282   18.0441    8.9107 C.ar      1 UNK         0.0000 
   2669 C(6)       18.9228   19.4316    8.9020 C.ar      1 UNK         0.0000 
   2670 C(7)       20.8959   22.4646    9.4070 C.2       1 UNK         0.0000 
   2671 C(8)       20.4551   23.8987    9.2860 C.3       1 UNK         0.0000 
   2672 H(1)       21.9273   20.0051   10.3744 H         1 UNK         0.0000 
   2673 H(2)       21.9446   17.5543   10.3903 H         1 UNK         0.0000 
   2674 H(3)       18.0850   17.4948    8.5104 H         1 UNK         0.0000 
   2675 H(4)       18.0722   19.9652    8.4961 H         1 UNK         0.0000 
   2676 H(5)       19.2150   15.6123    9.2841 H         1 UNK         0.0000 
   2677 H(6)       18.9792   21.9227    9.1910 H         1 UNK         0.0000 
   2678 H(7)       20.5333   24.3618   10.2352 H         1 UNK         0.0000 
   2679 H(8)       19.4583   23.9968    8.9420 H         1 UNK         0.0000 
   2680 H(9)       21.1355   24.4164    8.6612 H         1 UNK         0.0000 
   2681 O(1)       10.2684   28.1926   15.5017 O.3       1 UNK         0.0000 
   2682 O(2)       12.2662   29.4326    9.4577 O.2       1 UNK         0.0000 
   2683 N(1)       10.0850   29.4833   10.0886 N.am      1 UNK         0.0000 
   2684 C(1)       10.1845   29.1244   11.4515 C.ar      1 UNK         0.0000 
   2685 C(2)       11.2666   28.4385   12.0027 C.ar      1 UNK         0.0000 
   2686 C(3)       11.2737   28.1297   13.3599 C.ar      1 UNK         0.0000 
   2687 C(4)       10.2037   28.4924   14.1738 C.ar      1 UNK         0.0000 
   2688 C(5)        9.1080   29.1508   13.6167 C.ar      1 UNK         0.0000 
   2689 C(6)        9.1027   29.4636   12.2649 C.ar      1 UNK         0.0000 
   2690 C(7)       11.0758   29.6361    9.1951 C.2       1 UNK         0.0000 
   2691 C(8)       10.6350   30.0687    7.8224 C.3       1 UNK         0.0000 
   2692 H(1)       12.1072   28.1528   11.3824 H         1 UNK         0.0000 
   2693 H(2)       12.1245   27.5998   13.7701 H         1 UNK         0.0000 
   2694 H(3)        8.2649   29.4209   14.2404 H         1 UNK         0.0000 
   2695 H(4)        8.2521   29.9767   11.8334 H         1 UNK         0.0000 
   2696 H(5)        9.3949   28.2531   15.9075 H         1 UNK         0.0000 
   2697 H(6)        9.1591   29.7280    9.7711 H         1 UNK         0.0000 
   2698 H(7)       10.7132   29.2443    7.1624 H         1 UNK         0.0000 
   2699 H(8)        9.6382   30.4259    7.8021 H         1 UNK         0.0000 
   2700 H(9)       11.3154   30.7919    7.4544 H         1 UNK         0.0000 
   2701 O(1)       11.4011   24.8317   12.3169 O.3       1 UNK         0.0000 
   2702 O(2)        9.4033   18.6629   12.2011 O.2       1 UNK         0.0000 
   2703 N(1)       11.5844   19.2673   12.3888 N.am      1 UNK         0.0000 
   2704 C(1)       11.4850   20.6758   12.3376 C.ar      1 UNK         0.0000 
   2705 C(2)       10.4028   21.3640   11.7893 C.ar      1 UNK         0.0000 
   2706 C(3)       10.3958   22.7558   11.7858 C.ar      1 UNK         0.0000 
   2707 C(4)       11.4658   23.4704   12.3181 C.ar      1 UNK         0.0000 
   2708 C(5)       12.5614   22.7825   12.8383 C.ar      1 UNK         0.0000 
   2709 C(6)       12.5667   21.3950   12.8470 C.ar      1 UNK         0.0000 
   2710 C(7)       10.5936   18.3620   12.3420 C.2       1 UNK         0.0000 
   2711 C(8)       11.0345   16.9279   12.4630 C.3       1 UNK         0.0000 
   2712 H(1)        9.5623   20.8215   11.3746 H         1 UNK         0.0000 
   2713 H(2)        9.5450   23.2723   11.3587 H         1 UNK         0.0000 
   2714 H(3)       13.4046   23.3317   13.2386 H         1 UNK         0.0000 
   2715 H(4)       13.4173   20.8614   13.2530 H         1 UNK         0.0000 
   2716 H(5)       12.2745   25.2143   12.4649 H         1 UNK         0.0000 
   2717 H(6)       12.5104   18.9039   12.5580 H         1 UNK         0.0000 
   2718 H(7)       10.9562   16.4648   11.5138 H         1 UNK         0.0000 
   2719 H(8)       12.0313   16.8298   12.8070 H         1 UNK         0.0000 
   2720 H(9)       10.3540   16.4102   13.0878 H         1 UNK         0.0000 
   2721 O(1)       15.7350   33.0473   13.4097 O.3       1 UNK         0.0000 
   2722 O(2)       13.7372   31.8072   19.4537 O.2       1 UNK         0.0000 
   2723 N(1)       15.9183   31.7566   18.8228 N.am      1 UNK         0.0000 
   2724 C(1)       15.8189   32.1155   17.4599 C.ar      1 UNK         0.0000 
   2725 C(2)       14.7367   32.8014   16.9087 C.ar      1 UNK         0.0000 
   2726 C(3)       14.7297   33.1102   15.5516 C.ar      1 UNK         0.0000 
   2727 C(4)       15.7997   32.7475   14.7376 C.ar      1 UNK         0.0000 
   2728 C(5)       16.8953   32.0891   15.2947 C.ar      1 UNK         0.0000 
   2729 C(6)       16.9006   31.7763   16.6465 C.ar      1 UNK         0.0000 
   2730 C(7)       14.9275   31.6038   19.7163 C.2       1 UNK         0.0000 
   2731 C(8)       15.3684   31.1711   21.0890 C.3       1 UNK         0.0000 
   2732 H(1)       13.8962   33.0871   17.5290 H         1 UNK         0.0000 
   2733 H(2)       13.8789   33.6401   15.1413 H         1 UNK         0.0000 
   2734 H(3)       17.7385   31.8190   14.6710 H         1 UNK         0.0000 
   2735 H(4)       17.7512   31.2632   17.0780 H         1 UNK         0.0000 
   2736 H(5)       16.6084   32.9868   13.0039 H         1 UNK         0.0000 
   2737 H(6)       16.8443   31.5119   19.1403 H         1 UNK         0.0000 
   2738 H(7)       15.2901   31.9956   21.7490 H         1 UNK         0.0000 
   2739 H(8)       16.3652   30.8140   21.1093 H         1 UNK         0.0000 
   2740 H(9)       14.6879   30.4480   21.4570 H         1 UNK         0.0000 
   2741 O(1)       20.0885   21.7258   16.5945 O.3       1 UNK         0.0000 
   2742 O(2)       22.0863   27.8946   16.7103 O.2       1 UNK         0.0000 
   2743 N(1)       19.9051   27.2902   16.5226 N.am      1 UNK         0.0000 
   2744 C(1)       20.0046   25.8818   16.5738 C.ar      1 UNK         0.0000 
   2745 C(2)       21.0868   25.1936   17.1221 C.ar      1 UNK         0.0000 
   2746 C(3)       21.0938   23.8017   17.1257 C.ar      1 UNK         0.0000 
   2747 C(4)       20.0238   23.0871   16.5933 C.ar      1 UNK         0.0000 
   2748 C(5)       18.9282   23.7751   16.0731 C.ar      1 UNK         0.0000 
   2749 C(6)       18.9228   25.1626   16.0644 C.ar      1 UNK         0.0000 
   2750 C(7)       20.8959   28.1955   16.5694 C.2       1 UNK         0.0000 
   2751 C(8)       20.4551   29.6296   16.4484 C.3       1 UNK         0.0000 
   2752 H(1)       21.9273   25.7361   17.5368 H         1 UNK         0.0000 
   2753 H(2)       21.9446   23.2853   17.5527 H         1 UNK         0.0000 
   2754 H(3)       18.0850   23.2258   15.6728 H         1 UNK         0.0000 
   2755 H(4)       18.0722   25.6961   15.6585 H         1 UNK         0.0000 
   2756 H(5)       19.2150   21.3432   16.4465 H         1 UNK         0.0000 
   2757 H(6)       18.9792   27.6537   16.3534 H         1 UNK         0.0000 
   2758 H(7)       20.5333   30.0928   17.3976 H         1 UNK         0.0000 
   2759 H(8)       19.4583   29.7278   16.1044 H         1 UNK         0.0000 
   2760 H(9)       21.1355   30.1473   15.8236 H         1 UNK         0.0000 
   2761 O(1)       15.7546   19.2412   22.6641 O.3       1 UNK         0.0000 
   2762 O(2)       17.7524   20.4813   16.6201 O.2       1 UNK         0.0000 
   2763 N(1)       15.5713   20.5319   17.2510 N.am      1 UNK         0.0000 
   2764 C(1)       15.6707   20.1730   18.6139 C.ar      1 UNK         0.0000 
   2765 C(2)       16.7529   19.4871   19.1651 C.ar      1 UNK         0.0000 
   2766 C(3)       16.7599   19.1784   20.5223 C.ar      1 UNK         0.0000 
   2767 C(4)       15.6899   19.5410   21.3362 C.ar      1 UNK         0.0000 
   2768 C(5)       14.5943   20.1994   20.7791 C.ar      1 UNK         0.0000 
   2769 C(6)       14.5890   20.5123   19.4273 C.ar      1 UNK         0.0000 
   2770 C(7)       16.5620   20.6847   16.3575 C.2       1 UNK         0.0000 
   2771 C(8)       16.1212   21.1174   14.9848 C.3       1 UNK         0.0000 
   2772 H(1)       17.5934   19.2015   18.5448 H         1 UNK         0.0000 
   2773 H(2)       17.6107   18.6484   20.9325 H         1 UNK         0.0000 
   2774 H(3)       13.7511   20.4695   21.4028 H         1 UNK         0.0000 
   2775 H(4)       13.7383   21.0253   18.9958 H         1 UNK         0.0000 
   2776 H(5)       14.8811   19.3017   23.0699 H         1 UNK         0.0000 
   2777 H(6)       14.6453   20.7767   16.9335 H         1 UNK         0.0000 
   2778 H(7)       16.1994   20.2929   14.3248 H         1 UNK         0.0000 
   2779 H(8)       15.1244   21.4745   14.9645 H         1 UNK         0.0000 
   2780 H(9)       16.8017   21.8405   14.6168 H         1 UNK         0.0000 
   2781 O(1)       18.4781   30.5627   19.4793 O.3       1 UNK         0.0000 
   2782 O(2)       16.4803   24.3939   19.3635 O.2       1 UNK         0.0000 
   2783 N(1)       18.6614   24.9983   19.5512 N.am      1 UNK         0.0000 
   2784 C(1)       18.5620   26.4068   19.5000 C.ar      1 UNK         0.0000 
   2785 C(2)       17.4798   27.0950   18.9517 C.ar      1 UNK         0.0000 
   2786 C(3)       17.4728   28.4868   18.9482 C.ar      1 UNK         0.0000 
   2787 C(4)       18.5428   29.2014   19.4805 C.ar      1 UNK         0.0000 
   2788 C(5)       19.6384   28.5135   20.0007 C.ar      1 UNK         0.0000 
   2789 C(6)       19.6437   27.1259   20.0094 C.ar      1 UNK         0.0000 
   2790 C(7)       17.6706   24.0930   19.5044 C.2       1 UNK         0.0000 
   2791 C(8)       18.1115   22.6589   19.6254 C.3       1 UNK         0.0000 
   2792 H(1)       16.6393   26.5524   18.5370 H         1 UNK         0.0000 
   2793 H(2)       16.6220   29.0033   18.5211 H         1 UNK         0.0000 
   2794 H(3)       20.4816   29.0627   20.4010 H         1 UNK         0.0000 
   2795 H(4)       20.4943   26.5924   20.4154 H         1 UNK         0.0000 
   2796 H(5)       19.3515   30.9453   19.6273 H         1 UNK         0.0000 
   2797 H(6)       19.5874   24.6348   19.7204 H         1 UNK         0.0000 
   2798 H(7)       18.0332   22.1958   18.6762 H         1 UNK         0.0000 
   2799 H(8)       19.1083   22.5607   19.9694 H         1 UNK         0.0000 
   2800 H(9)       17.4310   22.1412   20.2502 H         1 UNK         0.0000 
   2801 O(1)       14.1442   24.0960   20.5721 O.3       1 UNK         0.0000 
   2802 O(2)       12.1464   22.8559   26.6161 O.2       1 UNK         0.0000 
   2803 N(1)       14.3275   22.8052   25.9852 N.am      1 UNK         0.0000 
   2804 C(1)       14.2281   23.1642   24.6223 C.ar      1 UNK         0.0000 
   2805 C(2)       13.1459   23.8500   24.0711 C.ar      1 UNK         0.0000 
   2806 C(3)       13.1389   24.1588   22.7140 C.ar      1 UNK         0.0000 
   2807 C(4)       14.2089   23.7962   21.9000 C.ar      1 UNK         0.0000 
   2808 C(5)       15.3045   23.1378   22.4571 C.ar      1 UNK         0.0000 
   2809 C(6)       15.3098   22.8249   23.8089 C.ar      1 UNK         0.0000 
   2810 C(7)       13.3368   22.6524   26.8787 C.2       1 UNK         0.0000 
   2811 C(8)       13.7776   22.2198   28.2514 C.3       1 UNK         0.0000 
   2812 H(1)       12.3054   24.1357   24.6914 H         1 UNK         0.0000 
   2813 H(2)       12.2881   24.6887   22.3037 H         1 UNK         0.0000 
   2814 H(3)       16.1477   22.8677   21.8334 H         1 UNK         0.0000 
   2815 H(4)       16.1604   22.3118   24.2404 H         1 UNK         0.0000 
   2816 H(5)       15.0176   24.0354   20.1663 H         1 UNK         0.0000 
   2817 H(6)       15.2535   22.5605   26.3027 H         1 UNK         0.0000 
   2818 H(7)       13.6993   23.0442   28.9114 H         1 UNK         0.0000 
   2819 H(8)       14.7744   21.8626   28.2717 H         1 UNK         0.0000 
   2820 H(9)       13.0971   21.4967   28.6194 H         1 UNK         0.0000 
   2821 O(1)       13.0115   27.4568   23.7569 O.3       1 UNK         0.0000 
   2822 O(2)       15.0093   33.6256   23.8727 O.2       1 UNK         0.0000 
   2823 N(1)       12.8281   33.0212   23.6850 N.am      1 UNK         0.0000 
   2824 C(1)       12.9276   31.6127   23.7362 C.ar      1 UNK         0.0000 
   2825 C(2)       14.0098   30.9245   24.2845 C.ar      1 UNK         0.0000 
   2826 C(3)       14.0168   29.5327   24.2881 C.ar      1 UNK         0.0000 
   2827 C(4)       12.9468   28.8181   23.7557 C.ar      1 UNK         0.0000 
   2828 C(5)       11.8512   29.5060   23.2355 C.ar      1 UNK         0.0000 
   2829 C(6)       11.8458   30.8936   23.2268 C.ar      1 UNK         0.0000 
   2830 C(7)       13.8189   33.9265   23.7318 C.2       1 UNK         0.0000 
   2831 C(8)       13.3781   35.3606   23.6108 C.3       1 UNK         0.0000 
   2832 H(1)       14.8503   31.4671   24.6992 H         1 UNK         0.0000 
   2833 H(2)       14.8676   29.0162   24.7151 H         1 UNK         0.0000 
   2834 H(3)       11.0080   28.9568   22.8352 H         1 UNK         0.0000 
   2835 H(4)       10.9952   31.4271   22.8209 H         1 UNK         0.0000 
   2836 H(5)       12.1380   27.0742   23.6089 H         1 UNK         0.0000 
   2837 H(6)       11.9022   33.3846   23.5158 H         1 UNK         0.0000 
   2838 H(7)       13.4563   35.8237   24.5600 H         1 UNK         0.0000 
   2839 H(8)       12.3813   35.4588   23.2668 H         1 UNK         0.0000 
   2840 H(9)       14.0585   35.8783   22.9860 H         1 UNK         0.0000 
   2841 O(1)       17.3454   22.4616    8.3393 O.3       1 UNK         0.0000 
   2842 O(2)       19.3432   23.7017    2.2953 O.2       1 UNK         0.0000 
   2843 N(1)       17.1620   23.7523    2.9262 N.am      1 UNK         0.0000 
   2844 C(1)       17.2615   23.3934    4.2891 C.ar      1 UNK         0.0000 
   2845 C(2)       18.3436   22.7075    4.8403 C.ar      1 UNK         0.0000 
   2846 C(3)       18.3507   22.3988    6.1975 C.ar      1 UNK         0.0000 
   2847 C(4)       17.2807   22.7614    7.0114 C.ar      1 UNK         0.0000 
   2848 C(5)       16.1850   23.4198    6.4543 C.ar      1 UNK         0.0000 
   2849 C(6)       16.1797   23.7327    5.1025 C.ar      1 UNK         0.0000 
   2850 C(7)       18.1528   23.9051    2.0327 C.2       1 UNK         0.0000 
   2851 C(8)       17.7120   24.3378    0.6600 C.3       1 UNK         0.0000 
   2852 H(1)       19.1842   22.4219    4.2200 H         1 UNK         0.0000 
   2853 H(2)       19.2015   21.8688    6.6077 H         1 UNK         0.0000 
   2854 H(3)       15.3419   23.6899    7.0780 H         1 UNK         0.0000 
   2855 H(4)       15.3291   24.2457    4.6710 H         1 UNK         0.0000 
   2856 H(5)       16.4719   22.5221    8.7451 H         1 UNK         0.0000 
   2857 H(6)       16.2361   23.9971    2.6087 H         1 UNK         0.0000 
   2858 H(7)       17.7902   23.5133    0.0000 H         1 UNK         0.0000 
   2859 H(8)       16.7152   24.6949    0.6397 H         1 UNK         0.0000 
   2860 H(9)       18.3924   25.0609    0.2920 H         1 UNK         0.0000 
   2861 O(1)       20.0689   33.7831    5.1545 O.3       1 UNK         0.0000 
   2862 O(2)       18.0711   27.6143    5.0387 O.2       1 UNK         0.0000 
   2863 N(1)       20.2522   28.2187    5.2264 N.am      1 UNK         0.0000 
   2864 C(1)       20.1527   29.6272    5.1752 C.ar      1 UNK         0.0000 
   2865 C(2)       19.0706   30.3154    4.6269 C.ar      1 UNK         0.0000 
   2866 C(3)       19.0636   31.7072    4.6234 C.ar      1 UNK         0.0000 
   2867 C(4)       20.1336   32.4218    5.1557 C.ar      1 UNK         0.0000 
   2868 C(5)       21.2292   31.7339    5.6759 C.ar      1 UNK         0.0000 
   2869 C(6)       21.2345   30.3463    5.6846 C.ar      1 UNK         0.0000 
   2870 C(7)       19.2614   27.3134    5.1796 C.2       1 UNK         0.0000 
   2871 C(8)       19.7023   25.8793    5.3006 C.3       1 UNK         0.0000 
   2872 H(1)       18.2301   29.7728    4.2122 H         1 UNK         0.0000 
   2873 H(2)       18.2128   32.2236    4.1963 H         1 UNK         0.0000 
   2874 H(3)       22.0724   32.2831    6.0762 H         1 UNK         0.0000 
   2875 H(4)       22.0851   29.8128    6.0906 H         1 UNK         0.0000 
   2876 H(5)       20.9423   34.1657    5.3025 H         1 UNK         0.0000 
   2877 H(6)       21.1782   27.8552    5.3956 H         1 UNK         0.0000 
   2878 H(7)       19.6240   25.4162    4.3514 H         1 UNK         0.0000 
   2879 H(8)       20.6991   25.7811    5.6446 H         1 UNK         0.0000 
   2880 H(9)       19.0218   25.3616    5.9254 H         1 UNK         0.0000 
   2881 O(1)       17.3258   41.9987    6.2473 O.3       1 UNK         0.0000 
   2882 O(2)       15.3280   40.7586   12.2913 O.2       1 UNK         0.0000 
   2883 N(1)       17.5091   40.7080   11.6604 N.am      1 UNK         0.0000 
   2884 C(1)       17.4096   41.0669   10.2975 C.ar      1 UNK         0.0000 
   2885 C(2)       16.3275   41.7528    9.7463 C.ar      1 UNK         0.0000 
   2886 C(3)       16.3205   42.0615    8.3892 C.ar      1 UNK         0.0000 
   2887 C(4)       17.3905   41.6989    7.5752 C.ar      1 UNK         0.0000 
   2888 C(5)       18.4861   41.0405    8.1323 C.ar      1 UNK         0.0000 
   2889 C(6)       18.4914   40.7276    9.4841 C.ar      1 UNK         0.0000 
   2890 C(7)       16.5183   40.5551   12.5539 C.2       1 UNK         0.0000 
   2891 C(8)       16.9592   40.1225   13.9266 C.3       1 UNK         0.0000 
   2892 H(1)       15.4870   42.0384   10.3666 H         1 UNK         0.0000 
   2893 H(2)       15.4696   42.5914    7.9789 H         1 UNK         0.0000 
   2894 H(3)       19.3293   40.7704    7.5086 H         1 UNK         0.0000 
   2895 H(4)       19.3420   40.2146    9.9156 H         1 UNK         0.0000 
   2896 H(5)       18.1992   41.9382    5.8415 H         1 UNK         0.0000 
   2897 H(6)       18.4351   40.4632   11.9779 H         1 UNK         0.0000 
   2898 H(7)       16.8809   40.9470   14.5866 H         1 UNK         0.0000 
   2899 H(8)       17.9560   39.7654   13.9469 H         1 UNK         0.0000 
   2900 H(9)       16.2787   39.3994   14.2946 H         1 UNK         0.0000 
   2901 O(1)       21.6793   30.6772    9.4321 O.3       1 UNK         0.0000 
   2902 O(2)       23.6771   36.8460    9.5479 O.2       1 UNK         0.0000 
   2903 N(1)       21.4959   36.2416    9.3602 N.am      1 UNK         0.0000 
   2904 C(1)       21.5954   34.8331    9.4114 C.ar      1 UNK         0.0000 
   2905 C(2)       22.6775   34.1449    9.9597 C.ar      1 UNK         0.0000 
   2906 C(3)       22.6846   32.7531    9.9633 C.ar      1 UNK         0.0000 
   2907 C(4)       21.6145   32.0385    9.4309 C.ar      1 UNK         0.0000 
   2908 C(5)       20.5189   32.7264    8.9107 C.ar      1 UNK         0.0000 
   2909 C(6)       20.5136   34.1140    8.9020 C.ar      1 UNK         0.0000 
   2910 C(7)       22.4867   37.1469    9.4070 C.2       1 UNK         0.0000 
   2911 C(8)       22.0459   38.5810    9.2860 C.3       1 UNK         0.0000 
   2912 H(1)       23.5181   34.6875   10.3744 H         1 UNK         0.0000 
   2913 H(2)       23.5354   32.2366   10.3903 H         1 UNK         0.0000 
   2914 H(3)       19.6758   32.1772    8.5104 H         1 UNK         0.0000 
   2915 H(4)       19.6630   34.6475    8.4961 H         1 UNK         0.0000 
   2916 H(5)       20.8058   30.2946    9.2841 H         1 UNK         0.0000 
   2917 H(6)       20.5700   36.6050    9.1910 H         1 UNK         0.0000 
   2918 H(7)       22.1241   39.0441   10.2352 H         1 UNK         0.0000 
   2919 H(8)       21.0491   38.6792    8.9420 H         1 UNK         0.0000 
   2920 H(9)       22.7263   39.0987    8.6612 H         1 UNK         0.0000 
   2921 O(1)       11.8592   42.8749   15.5017 O.3       1 UNK         0.0000 
   2922 O(2)       13.8570   44.1150    9.4577 O.2       1 UNK         0.0000 
   2923 N(1)       11.6758   44.1656   10.0886 N.am      1 UNK         0.0000 
   2924 C(1)       11.7753   43.8067   11.4515 C.ar      1 UNK         0.0000 
   2925 C(2)       12.8574   43.1208   12.0027 C.ar      1 UNK         0.0000 
   2926 C(3)       12.8645   42.8120   13.3599 C.ar      1 UNK         0.0000 
   2927 C(4)       11.7944   43.1747   14.1738 C.ar      1 UNK         0.0000 
   2928 C(5)       10.6988   43.8331   13.6167 C.ar      1 UNK         0.0000 
   2929 C(6)       10.6935   44.1460   12.2649 C.ar      1 UNK         0.0000 
   2930 C(7)       12.6666   44.3184    9.1951 C.2       1 UNK         0.0000 
   2931 C(8)       12.2257   44.7511    7.8224 C.3       1 UNK         0.0000 
   2932 H(1)       13.6980   42.8352   11.3824 H         1 UNK         0.0000 
   2933 H(2)       13.7153   42.2821   13.7701 H         1 UNK         0.0000 
   2934 H(3)        9.8557   44.1032   14.2404 H         1 UNK         0.0000 
   2935 H(4)        9.8429   44.6590   11.8334 H         1 UNK         0.0000 
   2936 H(5)       10.9857   42.9354   15.9075 H         1 UNK         0.0000 
   2937 H(6)       10.7499   44.4103    9.7711 H         1 UNK         0.0000 
   2938 H(7)       12.3040   43.9266    7.1624 H         1 UNK         0.0000 
   2939 H(8)       11.2290   45.1082    7.8021 H         1 UNK         0.0000 
   2940 H(9)       12.9062   45.4742    7.4544 H         1 UNK         0.0000 
   2941 O(1)       12.9919   39.5141   12.3169 O.3       1 UNK         0.0000 
   2942 O(2)       10.9941   33.3453   12.2011 O.2       1 UNK         0.0000 
   2943 N(1)       13.1752   33.9497   12.3888 N.am      1 UNK         0.0000 
   2944 C(1)       13.0757   35.3581   12.3376 C.ar      1 UNK         0.0000 
   2945 C(2)       11.9936   36.0463   11.7893 C.ar      1 UNK         0.0000 
   2946 C(3)       11.9866   37.4381   11.7858 C.ar      1 UNK         0.0000 
   2947 C(4)       13.0566   38.1527   12.3181 C.ar      1 UNK         0.0000 
   2948 C(5)       14.1522   37.4648   12.8383 C.ar      1 UNK         0.0000 
   2949 C(6)       14.1575   36.0773   12.8470 C.ar      1 UNK         0.0000 
   2950 C(7)       12.1844   33.0444   12.3420 C.2       1 UNK         0.0000 
   2951 C(8)       12.6253   31.6102   12.4630 C.3       1 UNK         0.0000 
   2952 H(1)       11.1531   35.5038   11.3746 H         1 UNK         0.0000 
   2953 H(2)       11.1358   37.9546   11.3587 H         1 UNK         0.0000 
   2954 H(3)       14.9954   38.0141   13.2386 H         1 UNK         0.0000 
   2955 H(4)       15.0081   35.5438   13.2530 H         1 UNK         0.0000 
   2956 H(5)       13.8653   39.8967   12.4649 H         1 UNK         0.0000 
   2957 H(6)       14.1012   33.5862   12.5580 H         1 UNK         0.0000 
   2958 H(7)       12.5470   31.1471   11.5138 H         1 UNK         0.0000 
   2959 H(8)       13.6221   31.5121   12.8070 H         1 UNK         0.0000 
   2960 H(9)       11.9448   31.0926   13.0878 H         1 UNK         0.0000 
   2961 O(1)       17.3258   47.7297   13.4097 O.3       1 UNK         0.0000 
   2962 O(2)       15.3280   46.4896   19.4537 O.2       1 UNK         0.0000 
   2963 N(1)       17.5091   46.4389   18.8228 N.am      1 UNK         0.0000 
   2964 C(1)       17.4096   46.7979   17.4599 C.ar      1 UNK         0.0000 
   2965 C(2)       16.3275   47.4837   16.9087 C.ar      1 UNK         0.0000 
   2966 C(3)       16.3205   47.7925   15.5516 C.ar      1 UNK         0.0000 
   2967 C(4)       17.3905   47.4298   14.7376 C.ar      1 UNK         0.0000 
   2968 C(5)       18.4861   46.7715   15.2947 C.ar      1 UNK         0.0000 
   2969 C(6)       18.4914   46.4586   16.6465 C.ar      1 UNK         0.0000 
   2970 C(7)       16.5183   46.2861   19.7163 C.2       1 UNK         0.0000 
   2971 C(8)       16.9592   45.8535   21.0890 C.3       1 UNK         0.0000 
   2972 H(1)       15.4870   47.7694   17.5290 H         1 UNK         0.0000 
   2973 H(2)       15.4696   48.3224   15.1413 H         1 UNK         0.0000 
   2974 H(3)       19.3293   46.5014   14.6710 H         1 UNK         0.0000 
   2975 H(4)       19.3420   45.9455   17.0780 H         1 UNK         0.0000 
   2976 H(5)       18.1992   47.6691   13.0039 H         1 UNK         0.0000 
   2977 H(6)       18.4351   46.1942   19.1403 H         1 UNK         0.0000 
   2978 H(7)       16.8809   46.6779   21.7490 H         1 UNK         0.0000 
   2979 H(8)       17.9560   45.4963   21.1093 H         1 UNK         0.0000 
   2980 H(9)       16.2787   45.1304   21.4570 H         1 UNK         0.0000 
   2981 O(1)       21.6793   36.4082   16.5945 O.3       1 UNK         0.0000 
   2982 O(2)       23.6771   42.5769   16.7103 O.2       1 UNK         0.0000 
   2983 N(1)       21.4959   41.9725   16.5226 N.am      1 UNK         0.0000 
   2984 C(1)       21.5954   40.5641   16.5738 C.ar      1 UNK         0.0000 
   2985 C(2)       22.6775   39.8759   17.1221 C.ar      1 UNK         0.0000 
   2986 C(3)       22.6846   38.4841   17.1257 C.ar      1 UNK         0.0000 
   2987 C(4)       21.6145   37.7695   16.5933 C.ar      1 UNK         0.0000 
   2988 C(5)       20.5189   38.4574   16.0731 C.ar      1 UNK         0.0000 
   2989 C(6)       20.5136   39.8449   16.0644 C.ar      1 UNK         0.0000 
   2990 C(7)       22.4867   42.8779   16.5694 C.2       1 UNK         0.0000 
   2991 C(8)       22.0459   44.3120   16.4484 C.3       1 UNK         0.0000 
   2992 H(1)       23.5181   40.4184   17.5368 H         1 UNK         0.0000 
   2993 H(2)       23.5354   37.9676   17.5527 H         1 UNK         0.0000 
   2994 H(3)       19.6758   37.9081   15.6728 H         1 UNK         0.0000 
   2995 H(4)       19.6630   40.3784   15.6585 H         1 UNK         0.0000 
   2996 H(5)       20.8058   36.0256   16.4465 H         1 UNK         0.0000 
   2997 H(6)       20.5700   42.3360   16.3534 H         1 UNK         0.0000 
   2998 H(7)       22.1241   44.7751   17.3976 H         1 UNK         0.0000 
   2999 H(8)       21.0491   44.4101   16.1044 H         1 UNK         0.0000 
   3000 H(9)       22.7263   44.8296   15.8236 H         1 UNK         0.0000 
   3001 O(1)       17.3454   33.9235   22.6641 O.3       1 UNK         0.0000 
   3002 O(2)       19.3432   35.1636   16.6201 O.2       1 UNK         0.0000 
   3003 N(1)       17.1620   35.2142   17.2510 N.am      1 UNK         0.0000 
   3004 C(1)       17.2615   34.8553   18.6139 C.ar      1 UNK         0.0000 
   3005 C(2)       18.3436   34.1694   19.1651 C.ar      1 UNK         0.0000 
   3006 C(3)       18.3507   33.8607   20.5223 C.ar      1 UNK         0.0000 
   3007 C(4)       17.2807   34.2233   21.3362 C.ar      1 UNK         0.0000 
   3008 C(5)       16.1850   34.8817   20.7791 C.ar      1 UNK         0.0000 
   3009 C(6)       16.1797   35.1946   19.4273 C.ar      1 UNK         0.0000 
   3010 C(7)       18.1528   35.3671   16.3575 C.2       1 UNK         0.0000 
   3011 C(8)       17.7120   35.7997   14.9848 C.3       1 UNK         0.0000 
   3012 H(1)       19.1842   33.8838   18.5448 H         1 UNK         0.0000 
   3013 H(2)       19.2015   33.3308   20.9325 H         1 UNK         0.0000 
   3014 H(3)       15.3419   35.1518   21.4028 H         1 UNK         0.0000 
   3015 H(4)       15.3291   35.7077   18.9958 H         1 UNK         0.0000 
   3016 H(5)       16.4719   33.9840   23.0699 H         1 UNK         0.0000 
   3017 H(6)       16.2361   35.4590   16.9335 H         1 UNK         0.0000 
   3018 H(7)       17.7902   34.9753   14.3248 H         1 UNK         0.0000 
   3019 H(8)       16.7152   36.1568   14.9645 H         1 UNK         0.0000 
   3020 H(9)       18.3924   36.5228   14.6168 H         1 UNK         0.0000 
   3021 O(1)       20.0689   45.2450   19.4793 O.3       1 UNK         0.0000 
   3022 O(2)       18.0711   39.0762   19.3635 O.2       1 UNK         0.0000 
   3023 N(1)       20.2522   39.6806   19.5512 N.am      1 UNK         0.0000 
   3024 C(1)       20.1527   41.0891   19.5000 C.ar      1 UNK         0.0000 
   3025 C(2)       19.0706   41.7773   18.9517 C.ar      1 UNK         0.0000 
   3026 C(3)       19.0636   43.1691   18.9482 C.ar      1 UNK         0.0000 
   3027 C(4)       20.1336   43.8837   19.4805 C.ar      1 UNK         0.0000 
   3028 C(5)       21.2292   43.1958   20.0007 C.ar      1 UNK         0.0000 
   3029 C(6)       21.2345   41.8082   20.0094 C.ar      1 UNK         0.0000 
   3030 C(7)       19.2614   38.7753   19.5044 C.2       1 UNK         0.0000 
   3031 C(8)       19.7023   37.3412   19.6254 C.3       1 UNK         0.0000 
   3032 H(1)       18.2301   41.2348   18.5370 H         1 UNK         0.0000 
   3033 H(2)       18.2128   43.6856   18.5211 H         1 UNK         0.0000 
   3034 H(3)       22.0724   43.7450   20.4010 H         1 UNK         0.0000 
   3035 H(4)       22.0851   41.2747   20.4154 H         1 UNK         0.0000 
   3036 H(5)       20.9423   45.6276   19.6273 H         1 UNK         0.0000 
   3037 H(6)       21.1782   39.3172   19.7204 H         1 UNK         0.0000 
   3038 H(7)       19.6240   36.8781   18.6762 H         1 UNK         0.0000 
   3039 H(8)       20.6991   37.2431   19.9694 H         1 UNK         0.0000 
   3040 H(9)       19.0218   36.8235   20.2502 H         1 UNK         0.0000 
   3041 O(1)       15.7350   38.7783   20.5721 O.3       1 UNK         0.0000 
   3042 O(2)       13.7372   37.5382   26.6161 O.2       1 UNK         0.0000 
   3043 N(1)       15.9183   37.4876   25.9852 N.am      1 UNK         0.0000 
   3044 C(1)       15.8189   37.8465   24.6223 C.ar      1 UNK         0.0000 
   3045 C(2)       14.7367   38.5324   24.0711 C.ar      1 UNK         0.0000 
   3046 C(3)       14.7297   38.8411   22.7140 C.ar      1 UNK         0.0000 
   3047 C(4)       15.7997   38.4785   21.9000 C.ar      1 UNK         0.0000 
   3048 C(5)       16.8953   37.8201   22.4571 C.ar      1 UNK         0.0000 
   3049 C(6)       16.9006   37.5072   23.8089 C.ar      1 UNK         0.0000 
   3050 C(7)       14.9275   37.3347   26.8787 C.2       1 UNK         0.0000 
   3051 C(8)       15.3684   36.9021   28.2514 C.3       1 UNK         0.0000 
   3052 H(1)       13.8962   38.8180   24.6914 H         1 UNK         0.0000 
   3053 H(2)       13.8789   39.3710   22.3037 H         1 UNK         0.0000 
   3054 H(3)       17.7385   37.5500   21.8334 H         1 UNK         0.0000 
   3055 H(4)       17.7512   36.9942   24.2404 H         1 UNK         0.0000 
   3056 H(5)       16.6084   38.7178   20.1663 H         1 UNK         0.0000 
   3057 H(6)       16.8443   37.2428   26.3027 H         1 UNK         0.0000 
   3058 H(7)       15.2901   37.7266   28.9114 H         1 UNK         0.0000 
   3059 H(8)       16.3652   36.5450   28.2717 H         1 UNK         0.0000 
   3060 H(9)       14.6879   36.1790   28.6194 H         1 UNK         0.0000 
   3061 O(1)       14.6023   42.1391   23.7569 O.3       1 UNK         0.0000 
   3062 O(2)       16.6001   48.3079   23.8727 O.2       1 UNK         0.0000 
   3063 N(1)       14.4189   47.7035   23.6850 N.am      1 UNK         0.0000 
   3064 C(1)       14.5184   46.2951   23.7362 C.ar      1 UNK         0.0000 
   3065 C(2)       15.6005   45.6068   24.2845 C.ar      1 UNK         0.0000 
   3066 C(3)       15.6076   44.2150   24.2881 C.ar      1 UNK         0.0000 
   3067 C(4)       14.5375   43.5004   23.7557 C.ar      1 UNK         0.0000 
   3068 C(5)       13.4419   44.1884   23.2355 C.ar      1 UNK         0.0000 
   3069 C(6)       13.4366   45.5759   23.2268 C.ar      1 UNK         0.0000 
   3070 C(7)       15.4097   48.6088   23.7318 C.2       1 UNK         0.0000 
   3071 C(8)       14.9688   50.0429   23.6108 C.3       1 UNK         0.0000 
   3072 H(1)       16.4411   46.1494   24.6992 H         1 UNK         0.0000 
   3073 H(2)       16.4584   43.6986   24.7151 H         1 UNK         0.0000 
   3074 H(3)       12.5988   43.6391   22.8352 H         1 UNK         0.0000 
   3075 H(4)       12.5860   46.1094   22.8209 H         1 UNK         0.0000 
   3076 H(5)       13.7288   41.7565   23.6089 H         1 UNK         0.0000 
   3077 H(6)       13.4930   48.0670   23.5158 H         1 UNK         0.0000 
   3078 H(7)       15.0471   50.5060   24.5600 H         1 UNK         0.0000 
   3079 H(8)       13.9721   50.1411   23.2668 H         1 UNK         0.0000 
   3080 H(9)       15.6493   50.5606   22.9860 H         1 UNK         0.0000 
   3081 O(1)       18.9362   37.1439    8.3393 O.3       1 UNK         0.0000 
   3082 O(2)       20.9340   38.3840    2.2953 O.2       1 UNK         0.0000 
   3083 N(1)       18.7528   38.4346    2.9262 N.am      1 UNK         0.0000 
   3084 C(1)       18.8523   38.0757    4.2891 C.ar      1 UNK         0.0000 
   3085 C(2)       19.9344   37.3898    4.8403 C.ar      1 UNK         0.0000 
   3086 C(3)       19.9415   37.0811    6.1975 C.ar      1 UNK         0.0000 
   3087 C(4)       18.8714   37.4437    7.0114 C.ar      1 UNK         0.0000 
   3088 C(5)       17.7758   38.1021    6.4543 C.ar      1 UNK         0.0000 
   3089 C(6)       17.7705   38.4150    5.1025 C.ar      1 UNK         0.0000 
   3090 C(7)       19.7436   38.5875    2.0327 C.2       1 UNK         0.0000 
   3091 C(8)       19.3027   39.0201    0.6600 C.3       1 UNK         0.0000 
   3092 H(1)       20.7750   37.1042    4.2200 H         1 UNK         0.0000 
   3093 H(2)       20.7923   36.5512    6.6077 H         1 UNK         0.0000 
   3094 H(3)       16.9327   38.3722    7.0780 H         1 UNK         0.0000 
   3095 H(4)       16.9199   38.9281    4.6710 H         1 UNK         0.0000 
   3096 H(5)       18.0627   37.2044    8.7451 H         1 UNK         0.0000 
   3097 H(6)       17.8269   38.6794    2.6087 H         1 UNK         0.0000 
   3098 H(7)       19.3810   38.1956    0.0000 H         1 UNK         0.0000 
   3099 H(8)       18.3060   39.3772    0.6397 H         1 UNK         0.0000 
   3100 H(9)       19.9832   39.7432    0.2920 H         1 UNK         0.0000 
   3101 O(1)       21.6597   48.4654    5.1545 O.3       1 UNK         0.0000 
   3102 O(2)       19.6618   42.2966    5.0387 O.2       1 UNK         0.0000 
   3103 N(1)       21.8430   42.9010    5.2264 N.am      1 UNK         0.0000 
   3104 C(1)       21.7435   44.3095    5.1752 C.ar      1 UNK         0.0000 
   3105 C(2)       20.6614   44.9977    4.6269 C.ar      1 UNK         0.0000 
   3106 C(3)       20.6543   46.3895    4.6234 C.ar      1 UNK         0.0000 
   3107 C(4)       21.7244   47.1041    5.1557 C.ar      1 UNK         0.0000 
   3108 C(5)       22.8200   46.4162    5.6759 C.ar      1 UNK         0.0000 
   3109 C(6)       22.8253   45.0286    5.6846 C.ar      1 UNK         0.0000 
   3110 C(7)       20.8522   41.9957    5.1796 C.2       1 UNK         0.0000 
   3111 C(8)       21.2931   40.5616    5.3006 C.3       1 UNK         0.0000 
   3112 H(1)       19.8208   44.4552    4.2122 H         1 UNK         0.0000 
   3113 H(2)       19.8035   46.9060    4.1963 H         1 UNK         0.0000 
   3114 H(3)       23.6631   46.9654    6.0762 H         1 UNK         0.0000 
   3115 H(4)       23.6759   44.4951    6.0906 H         1 UNK         0.0000 
   3116 H(5)       22.5331   48.8480    5.3025 H         1 UNK         0.0000 
   3117 H(6)       22.7690   42.5376    5.3956 H         1 UNK         0.0000 
   3118 H(7)       21.2148   40.0985    4.3514 H         1 UNK         0.0000 
   3119 H(8)       22.2898   40.4635    5.6446 H         1 UNK         0.0000 
   3120 H(9)       20.6126   40.0439    5.9254 H         1 UNK         0.0000 
   3121 O(1)       18.9166   56.6810    6.2473 O.3       1 UNK         0.0000 
   3122 O(2)       16.9187   55.4409   12.2913 O.2       1 UNK         0.0000 
   3123 N(1)       19.0999   55.3903   11.6604 N.am      1 UNK         0.0000 
   3124 C(1)       19.0004   55.7492   10.2975 C.ar      1 UNK         0.0000 
   3125 C(2)       17.9183   56.4351    9.7463 C.ar      1 UNK         0.0000 
   3126 C(3)       17.9112   56.7439    8.3892 C.ar      1 UNK         0.0000 
   3127 C(4)       18.9813   56.3812    7.5752 C.ar      1 UNK         0.0000 
   3128 C(5)       20.0769   55.7228    8.1323 C.ar      1 UNK         0.0000 
   3129 C(6)       20.0822   55.4100    9.4841 C.ar      1 UNK         0.0000 
   3130 C(7)       18.1091   55.2375   12.5539 C.2       1 UNK         0.0000 
   3131 C(8)       18.5500   54.8048   13.9266 C.3       1 UNK         0.0000 
   3132 H(1)       17.0777   56.7208   10.3666 H         1 UNK         0.0000 
   3133 H(2)       17.0604   57.2738    7.9789 H         1 UNK         0.0000 
   3134 H(3)       20.9200   55.4527    7.5086 H         1 UNK         0.0000 
   3135 H(4)       20.9328   54.8969    9.9156 H         1 UNK         0.0000 
   3136 H(5)       19.7900   56.6205    5.8415 H         1 UNK         0.0000 
   3137 H(6)       20.0258   55.1456   11.9779 H         1 UNK         0.0000 
   3138 H(7)       18.4717   55.6293   14.5866 H         1 UNK         0.0000 
   3139 H(8)       19.5467   54.4477   13.9469 H         1 UNK         0.0000 
   3140 H(9)       17.8695   54.0817   14.2946 H         1 UNK         0.0000 
   3141 O(1)       23.2700   45.3595    9.4321 O.3       1 UNK         0.0000 
   3142 O(2)       25.2679   51.5283    9.5479 O.2       1 UNK         0.0000 
   3143 N(1)       23.0867   50.9239    9.3602 N.am      1 UNK         0.0000 
   3144 C(1)       23.1862   49.5155    9.4114 C.ar      1 UNK         0.0000 
   3145 C(2)       24.2683   48.8272    9.9597 C.ar      1 UNK         0.0000 
   3146 C(3)       24.2754   47.4354    9.9633 C.ar      1 UNK         0.0000 
   3147 C(4)       23.2053   46.7208    9.4309 C.ar      1 UNK         0.0000 
   3148 C(5)       22.1097   47.4088    8.9107 C.ar      1 UNK         0.0000 
   3149 C(6)       22.1044   48.7963    8.9020 C.ar      1 UNK         0.0000 
   3150 C(7)       24.0775   51.8292    9.4070 C.2       1 UNK         0.0000 
   3151 C(8)       23.6366   53.2633    9.2860 C.3       1 UNK         0.0000 
   3152 H(1)       25.1089   49.3698   10.3744 H         1 UNK         0.0000 
   3153 H(2)       25.1262   46.9190   10.3903 H         1 UNK         0.0000 
   3154 H(3)       21.2666   46.8595    8.5104 H         1 UNK         0.0000 
   3155 H(4)       21.2538   49.3298    8.4961 H         1 UNK         0.0000 
   3156 H(5)       22.3966   44.9769    9.2841 H         1 UNK         0.0000 
   3157 H(6)       22.1607   51.2874    9.1910 H         1 UNK         0.0000 
   3158 H(7)       23.7149   53.7264   10.2352 H         1 UNK         0.0000 
   3159 H(8)       22.6399   53.3615    8.9420 H         1 UNK         0.0000 
   3160 H(9)       24.3171   53.7810    8.6612 H         1 UNK         0.0000 
   3161 O(1)       13.4499   57.5572   15.5017 O.3       1 UNK         0.0000 
   3162 O(2)       15.4477   58.7973    9.4577 O.2       1 UNK         0.0000 
   3163 N(1)       13.2666   58.8479   10.0886 N.am      1 UNK         0.0000 
   3164 C(1)       13.3661   58.4890   11.4515 C.ar      1 UNK         0.0000 
   3165 C(2)       14.4482   57.8031   12.0027 C.ar      1 UNK         0.0000 
   3166 C(3)       14.4552   57.4944   13.3599 C.ar      1 UNK         0.0000 
   3167 C(4)       13.3852   57.8570   14.1738 C.ar      1 UNK         0.0000 
   3168 C(5)       12.2896   58.5154   13.6167 C.ar      1 UNK         0.0000 
   3169 C(6)       12.2843   58.8283   12.2649 C.ar      1 UNK         0.0000 
   3170 C(7)       14.2574   59.0008    9.1951 C.2       1 UNK         0.0000 
   3171 C(8)       13.8165   59.4334    7.8224 C.3       1 UNK         0.0000 
   3172 H(1)       15.2888   57.5175   11.3824 H         1 UNK         0.0000 
   3173 H(2)       15.3061   56.9645   13.7701 H         1 UNK         0.0000 
   3174 H(3)       11.4464   58.7855   14.2404 H         1 UNK         0.0000 
   3175 H(4)       11.4337   59.3414   11.8334 H         1 UNK         0.0000 
   3176 H(5)       12.5765   57.6177   15.9075 H         1 UNK         0.0000 
   3177 H(6)       12.3406   59.0927    9.7711 H         1 UNK         0.0000 
   3178 H(7)       13.8948   58.6089    7.1624 H         1 UNK         0.0000 
   3179 H(8)       12.8197   59.7905    7.8021 H         1 UNK         0.0000 
   3180 H(9)       14.4970   60.1565    7.4544 H         1 UNK         0.0000 
   3181 O(1)       14.5827   54.1964   12.3169 O.3       1 UNK         0.0000 
   3182 O(2)       12.5848   48.0276   12.2011 O.2       1 UNK         0.0000 
   3183 N(1)       14.7660   48.6320   12.3888 N.am      1 UNK         0.0000 
   3184 C(1)       14.6665   50.0404   12.3376 C.ar      1 UNK         0.0000 
   3185 C(2)       13.5844   50.7287   11.7893 C.ar      1 UNK         0.0000 
   3186 C(3)       13.5773   52.1205   11.7858 C.ar      1 UNK         0.0000 
   3187 C(4)       14.6474   52.8351   12.3181 C.ar      1 UNK         0.0000 
   3188 C(5)       15.7430   52.1472   12.8383 C.ar      1 UNK         0.0000 
   3189 C(6)       15.7483   50.7596   12.8470 C.ar      1 UNK         0.0000 
   3190 C(7)       13.7752   47.7267   12.3420 C.2       1 UNK         0.0000 
   3191 C(8)       14.2161   46.2926   12.4630 C.3       1 UNK         0.0000 
   3192 H(1)       12.7438   50.1861   11.3746 H         1 UNK         0.0000 
   3193 H(2)       12.7265   52.6369   11.3587 H         1 UNK         0.0000 
   3194 H(3)       16.5861   52.6964   13.2386 H         1 UNK         0.0000 
   3195 H(4)       16.5989   50.2261   13.2530 H         1 UNK         0.0000 
   3196 H(5)       15.4561   54.5790   12.4649 H         1 UNK         0.0000 
   3197 H(6)       15.6920   48.2685   12.5580 H         1 UNK         0.0000 
   3198 H(7)       14.1378   45.8295   11.5138 H         1 UNK         0.0000 
   3199 H(8)       15.2128   46.1944   12.8070 H         1 UNK         0.0000 
   3200 H(9)       13.5356   45.7749   13.0878 H         1 UNK         0.0000 
   3201 O(1)       18.9166   62.4120   13.4097 O.3       1 UNK         0.0000 
   3202 O(2)       16.9187   61.1719   19.4537 O.2       1 UNK         0.0000 
   3203 N(1)       19.0999   61.1213   18.8228 N.am      1 UNK         0.0000 
   3204 C(1)       19.0004   61.4802   17.4599 C.ar      1 UNK         0.0000 
   3205 C(2)       17.9183   62.1661   16.9087 C.ar      1 UNK         0.0000 
   3206 C(3)       17.9112   62.4748   15.5516 C.ar      1 UNK         0.0000 
   3207 C(4)       18.9813   62.1122   14.7376 C.ar      1 UNK         0.0000 
   3208 C(5)       20.0769   61.4538   15.2947 C.ar      1 UNK         0.0000 
   3209 C(6)       20.0822   61.1409   16.6465 C.ar      1 UNK         0.0000 
   3210 C(7)       18.1091   60.9684   19.7163 C.2       1 UNK         0.0000 
   3211 C(8)       18.5500   60.5358   21.0890 C.3       1 UNK         0.0000 
   3212 H(1)       17.0777   62.4517   17.5290 H         1 UNK         0.0000 
   3213 H(2)       17.0604   63.0047   15.1413 H         1 UNK         0.0000 
   3214 H(3)       20.9200   61.1837   14.6710 H         1 UNK         0.0000 
   3215 H(4)       20.9328   60.6279   17.0780 H         1 UNK         0.0000 
   3216 H(5)       19.7900   62.3515   13.0039 H         1 UNK         0.0000 
   3217 H(6)       20.0258   60.8765   19.1403 H         1 UNK         0.0000 
   3218 H(7)       18.4717   61.3603   21.7490 H         1 UNK         0.0000 
   3219 H(8)       19.5467   60.1787   21.1093 H         1 UNK         0.0000 
   3220 H(9)       17.8695   59.8127   21.4570 H         1 UNK         0.0000 
   3221 O(1)       23.2700   51.0905   16.5945 O.3       1 UNK         0.0000 
   3222 O(2)       25.2679   57.2593   16.7103 O.2       1 UNK         0.0000 
   3223 N(1)       23.0867   56.6549   16.5226 N.am      1 UNK         0.0000 
   3224 C(1)       23.1862   55.2464   16.5738 C.ar      1 UNK         0.0000 
   3225 C(2)       24.2683   54.5582   17.1221 C.ar      1 UNK         0.0000 
   3226 C(3)       24.2754   53.1664   17.1257 C.ar      1 UNK         0.0000 
   3227 C(4)       23.2053   52.4518   16.5933 C.ar      1 UNK         0.0000 
   3228 C(5)       22.1097   53.1397   16.0731 C.ar      1 UNK         0.0000 
   3229 C(6)       22.1044   54.5273   16.0644 C.ar      1 UNK         0.0000 
   3230 C(7)       24.0775   57.5602   16.5694 C.2       1 UNK         0.0000 
   3231 C(8)       23.6366   58.9943   16.4484 C.3       1 UNK         0.0000 
   3232 H(1)       25.1089   55.1008   17.5368 H         1 UNK         0.0000 
   3233 H(2)       25.1262   52.6499   17.5527 H         1 UNK         0.0000 
   3234 H(3)       21.2666   52.5905   15.6728 H         1 UNK         0.0000 
   3235 H(4)       21.2538   55.0608   15.6585 H         1 UNK         0.0000 
   3236 H(5)       22.3966   50.7079   16.4465 H         1 UNK         0.0000 
   3237 H(6)       22.1607   57.0183   16.3534 H         1 UNK         0.0000 
   3238 H(7)       23.7149   59.4574   17.3976 H         1 UNK         0.0000 
   3239 H(8)       22.6399   59.0924   16.1044 H         1 UNK         0.0000 
   3240 H(9)       24.3171   59.5120   15.8236 H         1 UNK         0.0000 
   3241 O(1)       18.9362   48.6059   22.6641 O.3       1 UNK         0.0000 
   3242 O(2)       20.9340   49.8459   16.6201 O.2       1 UNK         0.0000 
   3243 N(1)       18.7528   49.8966   17.2510 N.am      1 UNK         0.0000 
   3244 C(1)       18.8523   49.5377   18.6139 C.ar      1 UNK         0.0000 
   3245 C(2)       19.9344   48.8518   19.1651 C.ar      1 UNK         0.0000 
   3246 C(3)       19.9415   48.5430   20.5223 C.ar      1 UNK         0.0000 
   3247 C(4)       18.8714   48.9057   21.3362 C.ar      1 UNK         0.0000 
   3248 C(5)       17.7758   49.5641   20.7791 C.ar      1 UNK         0.0000 
   3249 C(6)       17.7705   49.8769   19.4273 C.ar      1 UNK         0.0000 
   3250 C(7)       19.7436   50.0494   16.3575 C.2       1 UNK         0.0000 
   3251 C(8)       19.3027   50.4820   14.9848 C.3       1 UNK         0.0000 
   3252 H(1)       20.7750   48.5661   18.5448 H         1 UNK         0.0000 
   3253 H(2)       20.7923   48.0131   20.9325 H         1 UNK         0.0000 
   3254 H(3)       16.9327   49.8341   21.4028 H         1 UNK         0.0000 
   3255 H(4)       16.9199   50.3900   18.9958 H         1 UNK         0.0000 
   3256 H(5)       18.0627   48.6664   23.0699 H         1 UNK         0.0000 
   3257 H(6)       17.8269   50.1413   16.9335 H         1 UNK         0.0000 
   3258 H(7)       19.3810   49.6576   14.3248 H         1 UNK         0.0000 
   3259 H(8)       18.3060   50.8392   14.9645 H         1 UNK         0.0000 
   3260 H(9)       19.9832   51.2051   14.6168 H         1 UNK         0.0000 
   3261 O(1)       21.6597   59.9274   19.4793 O.3       1 UNK         0.0000 
   3262 O(2)       19.6618   53.7586   19.3635 O.2       1 UNK         0.0000 
   3263 N(1)       21.8430   54.3630   19.5512 N.am      1 UNK         0.0000 
   3264 C(1)       21.7435   55.7714   19.5000 C.ar      1 UNK         0.0000 
   3265 C(2)       20.6614   56.4596   18.9517 C.ar      1 UNK         0.0000 
   3266 C(3)       20.6543   57.8514   18.9482 C.ar      1 UNK         0.0000 
   3267 C(4)       21.7244   58.5660   19.4805 C.ar      1 UNK         0.0000 
   3268 C(5)       22.8200   57.8781   20.0007 C.ar      1 UNK         0.0000 
   3269 C(6)       22.8253   56.4906   20.0094 C.ar      1 UNK         0.0000 
   3270 C(7)       20.8522   53.4577   19.5044 C.2       1 UNK         0.0000 
   3271 C(8)       21.2931   52.0235   19.6254 C.3       1 UNK         0.0000 
   3272 H(1)       19.8208   55.9171   18.5370 H         1 UNK         0.0000 
   3273 H(2)       19.8035   58.3679   18.5211 H         1 UNK         0.0000 
   3274 H(3)       23.6631   58.4274   20.4010 H         1 UNK         0.0000 
   3275 H(4)       23.6759   55.9571   20.4154 H         1 UNK         0.0000 
   3276 H(5)       22.5331   60.3100   19.6273 H         1 UNK         0.0000 
   3277 H(6)       22.7690   53.9995   19.7204 H         1 UNK         0.0000 
   3278 H(7)       21.2148   51.5604   18.6762 H         1 UNK         0.0000 
   3279 H(8)       22.2898   51.9254   19.9694 H         1 UNK         0.0000 
   3280 H(9)       20.6126   51.5059   20.2502 H         1 UNK         0.0000 
   3281 O(1)       17.3258   53.4606   20.5721 O.3       1 UNK         0.0000 
   3282 O(2)       15.3280   52.2205   26.6161 O.2       1 UNK         0.0000 
   3283 N(1)       17.5091   52.1699   25.9852 N.am      1 UNK         0.0000 
   3284 C(1)       17.4096   52.5288   24.6223 C.ar      1 UNK         0.0000 
   3285 C(2)       16.3275   53.2147   24.0711 C.ar      1 UNK         0.0000 
   3286 C(3)       16.3205   53.5235   22.7140 C.ar      1 UNK         0.0000 
   3287 C(4)       17.3905   53.1608   21.9000 C.ar      1 UNK         0.0000 
   3288 C(5)       18.4861   52.5024   22.4571 C.ar      1 UNK         0.0000 
   3289 C(6)       18.4914   52.1896   23.8089 C.ar      1 UNK         0.0000 
   3290 C(7)       16.5183   52.0171   26.8787 C.2       1 UNK         0.0000 
   3291 C(8)       16.9592   51.5844   28.2514 C.3       1 UNK         0.0000 
   3292 H(1)       15.4870   53.5004   24.6914 H         1 UNK         0.0000 
   3293 H(2)       15.4696   54.0534   22.3037 H         1 UNK         0.0000 
   3294 H(3)       19.3293   52.2323   21.8334 H         1 UNK         0.0000 
   3295 H(4)       19.3420   51.6765   24.2404 H         1 UNK         0.0000 
   3296 H(5)       18.1992   53.4001   20.1663 H         1 UNK         0.0000 
   3297 H(6)       18.4351   51.9252   26.3027 H         1 UNK         0.0000 
   3298 H(7)       16.8809   52.4089   28.9114 H         1 UNK         0.0000 
   3299 H(8)       17.9560   51.2273   28.2717 H         1 UNK         0.0000 
   3300 H(9)       16.2787   50.8613   28.6194 H         1 UNK         0.0000 
   3301 O(1)       16.1930   56.8215   23.7569 O.3       1 UNK         0.0000 
   3302 O(2)       18.1909   62.9902   23.8727 O.2       1 UNK         0.0000 
   3303 N(1)       16.0097   62.3858   23.6850 N.am      1 UNK         0.0000 
   3304 C(1)       16.1092   60.9774   23.7362 C.ar      1 UNK         0.0000 
   3305 C(2)       17.1913   60.2892   24.2845 C.ar      1 UNK         0.0000 
   3306 C(3)       17.1984   58.8974   24.2881 C.ar      1 UNK         0.0000 
   3307 C(4)       16.1283   58.1828   23.7557 C.ar      1 UNK         0.0000 
   3308 C(5)       15.0327   58.8707   23.2355 C.ar      1 UNK         0.0000 
   3309 C(6)       15.0274   60.2582   23.2268 C.ar      1 UNK         0.0000 
   3310 C(7)       17.0005   63.2911   23.7318 C.2       1 UNK         0.0000 
   3311 C(8)       16.5596   64.7253   23.6108 C.3       1 UNK         0.0000 
   3312 H(1)       18.0319   60.8317   24.6992 H         1 UNK         0.0000 
   3313 H(2)       18.0492   58.3809   24.7151 H         1 UNK         0.0000 
   3314 H(3)       14.1896   58.3214   22.8352 H         1 UNK         0.0000 
   3315 H(4)       14.1768   60.7917   22.8209 H         1 UNK         0.0000 
   3316 H(5)       15.3196   56.4389   23.6089 H         1 UNK         0.0000 
   3317 H(6)       15.0837   62.7493   23.5158 H         1 UNK         0.0000 
   3318 H(7)       16.6379   65.1884   24.5600 H         1 UNK         0.0000 
   3319 H(8)       15.5629   64.8234   23.2668 H         1 UNK         0.0000 
   3320 H(9)       17.2401   65.2429   22.9860 H         1 UNK         0.0000 
   3321 O(1)       20.5269   51.8263    8.3393 O.3       1 UNK         0.0000 
   3322 O(2)       22.5248   53.0663    2.2953 O.2       1 UNK         0.0000 
   3323 N(1)       20.3436   53.1170    2.9262 N.am      1 UNK         0.0000 
   3324 C(1)       20.4431   52.7581    4.2891 C.ar      1 UNK         0.0000 
   3325 C(2)       21.5252   52.0722    4.8403 C.ar      1 UNK         0.0000 
   3326 C(3)       21.5322   51.7634    6.1975 C.ar      1 UNK         0.0000 
   3327 C(4)       20.4622   52.1261    7.0114 C.ar      1 UNK         0.0000 
   3328 C(5)       19.3666   52.7845    6.4543 C.ar      1 UNK         0.0000 
   3329 C(6)       19.3613   53.0973    5.1025 C.ar      1 UNK         0.0000 
   3330 C(7)       21.3344   53.2698    2.0327 C.2       1 UNK         0.0000 
   3331 C(8)       20.8935   53.7024    0.6600 C.3       1 UNK         0.0000 
   3332 H(1)       22.3658   51.7865    4.2200 H         1 UNK         0.0000 
   3333 H(2)       22.3831   51.2335    6.6077 H         1 UNK         0.0000 
   3334 H(3)       18.5234   53.0545    7.0780 H         1 UNK         0.0000 
   3335 H(4)       18.5107   53.6104    4.6710 H         1 UNK         0.0000 
   3336 H(5)       19.6535   51.8868    8.7451 H         1 UNK         0.0000 
   3337 H(6)       19.4176   53.3617    2.6087 H         1 UNK         0.0000 
   3338 H(7)       20.9718   52.8780    0.0000 H         1 UNK         0.0000 
   3339 H(8)       19.8967   54.0596    0.6397 H         1 UNK         0.0000 
   3340 H(9)       21.5740   54.4255    0.2920 H         1 UNK         0.0000 
   3341 O(1)       23.2504   63.1478    5.1545 O.3       1 UNK         0.0000 
   3342 O(2)       21.2526   56.9790    5.0387 O.2       1 UNK         0.0000 
   3343 N(1)       23.4338   57.5834    5.2264 N.am      1 UNK         0.0000 
   3344 C(1)       23.3343   58.9918    5.1752 C.ar      1 UNK         0.0000 
   3345 C(2)       22.2522   59.6800    4.6269 C.ar      1 UNK         0.0000 
   3346 C(3)       22.2451   61.0718    4.6234 C.ar      1 UNK         0.0000 
   3347 C(4)       23.3152   61.7864    5.1557 C.ar      1 UNK         0.0000 
   3348 C(5)       24.4108   61.0985    5.6759 C.ar      1 UNK         0.0000 
   3349 C(6)       24.4161   59.7110    5.6846 C.ar      1 UNK         0.0000 
   3350 C(7)       22.4430   56.6781    5.1796 C.2       1 UNK         0.0000 
   3351 C(8)       22.8839   55.2439    5.3006 C.3       1 UNK         0.0000 
   3352 H(1)       21.4116   59.1375    4.2122 H         1 UNK         0.0000 
   3353 H(2)       21.3943   61.5883    4.1963 H         1 UNK         0.0000 
   3354 H(3)       25.2539   61.6478    6.0762 H         1 UNK         0.0000 
   3355 H(4)       25.2667   59.1775    6.0906 H         1 UNK         0.0000 
   3356 H(5)       24.1239   63.5304    5.3025 H         1 UNK         0.0000 
   3357 H(6)       24.3597   57.2199    5.3956 H         1 UNK         0.0000 
   3358 H(7)       22.8056   54.7808    4.3514 H         1 UNK         0.0000 
   3359 H(8)       23.8806   55.1458    5.6446 H         1 UNK         0.0000 
   3360 H(9)       22.2034   54.7263    5.9254 H         1 UNK         0.0000 
   3361 O(1)       20.5073   71.3634    6.2473 O.3       1 UNK         0.0000 
   3362 O(2)       18.5095   70.1233   12.2913 O.2       1 UNK         0.0000 
   3363 N(1)       20.6907   70.0726   11.6604 N.am      1 UNK         0.0000 
   3364 C(1)       20.5912   70.4316   10.2975 C.ar      1 UNK         0.0000 
   3365 C(2)       19.5091   71.1174    9.7463 C.ar      1 UNK         0.0000 
   3366 C(3)       19.5020   71.4262    8.3892 C.ar      1 UNK         0.0000 
   3367 C(4)       20.5720   71.0635    7.5752 C.ar      1 UNK         0.0000 
   3368 C(5)       21.6677   70.4052    8.1323 C.ar      1 UNK         0.0000 
   3369 C(6)       21.6730   70.0923    9.4841 C.ar      1 UNK         0.0000 
   3370 C(7)       19.6999   69.9198   12.5539 C.2       1 UNK         0.0000 
   3371 C(8)       20.1407   69.4872   13.9266 C.3       1 UNK         0.0000 
   3372 H(1)       18.6685   71.4031   10.3666 H         1 UNK         0.0000 
   3373 H(2)       18.6512   71.9561    7.9789 H         1 UNK         0.0000 
   3374 H(3)       22.5108   70.1351    7.5086 H         1 UNK         0.0000 
   3375 H(4)       22.5236   69.5792    9.9156 H         1 UNK         0.0000 
   3376 H(5)       21.3808   71.3028    5.8415 H         1 UNK         0.0000 
   3377 H(6)       21.6166   69.8279   11.9779 H         1 UNK         0.0000 
   3378 H(7)       20.0625   70.3116   14.5866 H         1 UNK         0.0000 
   3379 H(8)       21.1375   69.1300   13.9469 H         1 UNK         0.0000 
   3380 H(9)       19.4603   68.7641   14.2946 H         1 UNK         0.0000 
   3381 O(1)       24.8608   60.0419    9.4321 O.3       1 UNK         0.0000 
   3382 O(2)       26.8586   66.2106    9.5479 O.2       1 UNK         0.0000 
   3383 N(1)       24.6775   65.6062    9.3602 N.am      1 UNK         0.0000 
   3384 C(1)       24.7770   64.1978    9.4114 C.ar      1 UNK         0.0000 
   3385 C(2)       25.8591   63.5096    9.9597 C.ar      1 UNK         0.0000 
   3386 C(3)       25.8661   62.1178    9.9633 C.ar      1 UNK         0.0000 
   3387 C(4)       24.7961   61.4032    9.4309 C.ar      1 UNK         0.0000 
   3388 C(5)       23.7005   62.0911    8.9107 C.ar      1 UNK         0.0000 
   3389 C(6)       23.6952   63.4786    8.9020 C.ar      1 UNK         0.0000 
   3390 C(7)       25.6683   66.5115    9.4070 C.2       1 UNK         0.0000 
   3391 C(8)       25.2274   67.9457    9.2860 C.3       1 UNK         0.0000 
   3392 H(1)       26.6996   64.0521   10.3744 H         1 UNK         0.0000 
   3393 H(2)       26.7170   61.6013   10.3903 H         1 UNK         0.0000 
   3394 H(3)       22.8573   61.5418    8.5104 H         1 UNK         0.0000 
   3395 H(4)       22.8446   64.0121    8.4961 H         1 UNK         0.0000 
   3396 H(5)       23.9874   59.6593    9.2841 H         1 UNK         0.0000 
   3397 H(6)       23.7515   65.9697    9.1910 H         1 UNK         0.0000 
   3398 H(7)       25.3057   68.4088   10.2352 H         1 UNK         0.0000 
   3399 H(8)       24.2306   68.0438    8.9420 H         1 UNK         0.0000 
   3400 H(9)       25.9079   68.4633    8.6612 H         1 UNK         0.0000 
   3401 O(1)       15.0407   72.2396   15.5017 O.3       1 UNK         0.0000 
   3402 O(2)       17.0385   73.4796    9.4577 O.2       1 UNK         0.0000 
   3403 N(1)       14.8574   73.5303   10.0886 N.am      1 UNK         0.0000 
   3404 C(1)       14.9568   73.1714   11.4515 C.ar      1 UNK         0.0000 
   3405 C(2)       16.0390   72.4855   12.0027 C.ar      1 UNK         0.0000 
   3406 C(3)       16.0460   72.1767   13.3599 C.ar      1 UNK         0.0000 
   3407 C(4)       14.9760   72.5394   14.1738 C.ar      1 UNK         0.0000 
   3408 C(5)       13.8804   73.1977   13.6167 C.ar      1 UNK         0.0000 
   3409 C(6)       13.8751   73.5106   12.2649 C.ar      1 UNK         0.0000 
   3410 C(7)       15.8482   73.6831    9.1951 C.2       1 UNK         0.0000 
   3411 C(8)       15.4073   74.1157    7.8224 C.3       1 UNK         0.0000 
   3412 H(1)       16.8795   72.1998   11.3824 H         1 UNK         0.0000 
   3413 H(2)       16.8968   71.6468   13.7701 H         1 UNK         0.0000 
   3414 H(3)       13.0372   73.4678   14.2404 H         1 UNK         0.0000 
   3415 H(4)       13.0245   74.0237   11.8334 H         1 UNK         0.0000 
   3416 H(5)       14.1673   72.3001   15.9075 H         1 UNK         0.0000 
   3417 H(6)       13.9314   73.7750    9.7711 H         1 UNK         0.0000 
   3418 H(7)       15.4856   73.2913    7.1624 H         1 UNK         0.0000 
   3419 H(8)       14.4105   74.4729    7.8021 H         1 UNK         0.0000 
   3420 H(9)       16.0878   74.8388    7.4544 H         1 UNK         0.0000 
   3421 O(1)       16.1734   68.8787   12.3169 O.3       1 UNK         0.0000 
   3422 O(2)       14.1756   62.7099   12.2011 O.2       1 UNK         0.0000 
   3423 N(1)       16.3568   63.3143   12.3888 N.am      1 UNK         0.0000 
   3424 C(1)       16.2573   64.7228   12.3376 C.ar      1 UNK         0.0000 
   3425 C(2)       15.1752   65.4110   11.7893 C.ar      1 UNK         0.0000 
   3426 C(3)       15.1681   66.8028   11.7858 C.ar      1 UNK         0.0000 
   3427 C(4)       16.2382   67.5174   12.3181 C.ar      1 UNK         0.0000 
   3428 C(5)       17.3338   66.8295   12.8383 C.ar      1 UNK         0.0000 
   3429 C(6)       17.3391   65.4419   12.8470 C.ar      1 UNK         0.0000 
   3430 C(7)       15.3660   62.4090   12.3420 C.2       1 UNK         0.0000 
   3431 C(8)       15.8069   60.9749   12.4630 C.3       1 UNK         0.0000 
   3432 H(1)       14.3346   64.8685   11.3746 H         1 UNK         0.0000 
   3433 H(2)       14.3173   67.3193   11.3587 H         1 UNK         0.0000 
   3434 H(3)       18.1769   67.3787   13.2386 H         1 UNK         0.0000 
   3435 H(4)       18.1897   64.9084   13.2530 H         1 UNK         0.0000 
   3436 H(5)       17.0469   69.2613   12.4649 H         1 UNK         0.0000 
   3437 H(6)       17.2827   62.9509   12.5580 H         1 UNK         0.0000 
   3438 H(7)       15.7286   60.5118   11.5138 H         1 UNK         0.0000 
   3439 H(8)       16.8036   60.8768   12.8070 H         1 UNK         0.0000 
   3440 H(9)       15.1264   60.4572   13.0878 H         1 UNK         0.0000 
   3441 O(1)       20.5073   77.0943   13.4097 O.3       1 UNK         0.0000 
   3442 O(2)       18.5095   75.8542   19.4537 O.2       1 UNK         0.0000 
   3443 N(1)       20.6907   75.8036   18.8228 N.am      1 UNK         0.0000 
   3444 C(1)       20.5912   76.1625   17.4599 C.ar      1 UNK         0.0000 
   3445 C(2)       19.5091   76.8484   16.9087 C.ar      1 UNK         0.0000 
   3446 C(3)       19.5020   77.1572   15.5516 C.ar      1 UNK         0.0000 
   3447 C(4)       20.5720   76.7945   14.7376 C.ar      1 UNK         0.0000 
   3448 C(5)       21.6677   76.1361   15.2947 C.ar      1 UNK         0.0000 
   3449 C(6)       21.6730   75.8232   16.6465 C.ar      1 UNK         0.0000 
   3450 C(7)       19.6999   75.6508   19.7163 C.2       1 UNK         0.0000 
   3451 C(8)       20.1407   75.2181   21.0890 C.3       1 UNK         0.0000 
   3452 H(1)       18.6685   77.1341   17.5290 H         1 UNK         0.0000 
   3453 H(2)       18.6512   77.6871   15.1413 H         1 UNK         0.0000 
   3454 H(3)       22.5108   75.8660   14.6710 H         1 UNK         0.0000 
   3455 H(4)       22.5236   75.3102   17.0780 H         1 UNK         0.0000 
   3456 H(5)       21.3808   77.0338   13.0039 H         1 UNK         0.0000 
   3457 H(6)       21.6166   75.5589   19.1403 H         1 UNK         0.0000 
   3458 H(7)       20.0625   76.0426   21.7490 H         1 UNK         0.0000 
   3459 H(8)       21.1375   74.8610   21.1093 H         1 UNK         0.0000 
   3460 H(9)       19.4603   74.4950   21.4570 H         1 UNK         0.0000 
   3461 O(1)       24.8608   65.7728   16.5945 O.3       1 UNK         0.0000 
   3462 O(2)       26.8586   71.9416   16.7103 O.2       1 UNK         0.0000 
   3463 N(1)       24.6775   71.3372   16.5226 N.am      1 UNK         0.0000 
   3464 C(1)       24.7770   69.9288   16.5738 C.ar      1 UNK         0.0000 
   3465 C(2)       25.8591   69.2405   17.1221 C.ar      1 UNK         0.0000 
   3466 C(3)       25.8661   67.8487   17.1257 C.ar      1 UNK         0.0000 
   3467 C(4)       24.7961   67.1341   16.5933 C.ar      1 UNK         0.0000 
   3468 C(5)       23.7005   67.8221   16.0731 C.ar      1 UNK         0.0000 
   3469 C(6)       23.6952   69.2096   16.0644 C.ar      1 UNK         0.0000 
   3470 C(7)       25.6683   72.2425   16.5694 C.2       1 UNK         0.0000 
   3471 C(8)       25.2274   73.6766   16.4484 C.3       1 UNK         0.0000 
   3472 H(1)       26.6996   69.7831   17.5368 H         1 UNK         0.0000 
   3473 H(2)       26.7170   67.3323   17.5527 H         1 UNK         0.0000 
   3474 H(3)       22.8573   67.2728   15.6728 H         1 UNK         0.0000 
   3475 H(4)       22.8446   69.7431   15.6585 H         1 UNK         0.0000 
   3476 H(5)       23.9874   65.3902   16.4465 H         1 UNK         0.0000 
   3477 H(6)       23.7515   71.7007   16.3534 H         1 UNK         0.0000 
   3478 H(7)       25.3057   74.1397   17.3976 H         1 UNK         0.0000 
   3479 H(8)       24.2306   73.7748   16.1044 H         1 UNK         0.0000 
   3480 H(9)       25.9079   74.1943   15.8236 H         1 UNK         0.0000 
   3481 O(1)       20.5269   63.2882   22.6641 O.3       1 UNK         0.0000 
   3482 O(2)       22.5248   64.5283   16.6201 O.2       1 UNK         0.0000 
   3483 N(1)       20.3436   64.5789   17.2510 N.am      1 UNK         0.0000 
   3484 C(1)       20.4431   64.2200   18.6139 C.ar      1 UNK         0.0000 
   3485 C(2)       21.5252   63.5341   19.1651 C.ar      1 UNK         0.0000 
   3486 C(3)       21.5322   63.2253   20.5223 C.ar      1 UNK         0.0000 
   3487 C(4)       20.4622   63.5880   21.3362 C.ar      1 UNK         0.0000 
   3488 C(5)       19.3666   64.2464   20.7791 C.ar      1 UNK         0.0000 
   3489 C(6)       19.3613   64.5593   19.4273 C.ar      1 UNK         0.0000 
   3490 C(7)       21.3344   64.7317   16.3575 C.2       1 UNK         0.0000 
   3491 C(8)       20.8935   65.1644   14.9848 C.3       1 UNK         0.0000 
   3492 H(1)       22.3658   63.2484   18.5448 H         1 UNK         0.0000 
   3493 H(2)       22.3831   62.6954   20.9325 H         1 UNK         0.0000 
   3494 H(3)       18.5234   64.5165   21.4028 H         1 UNK         0.0000 
   3495 H(4)       18.5107   65.0723   18.9958 H         1 UNK         0.0000 
   3496 H(5)       19.6535   63.3487   23.0699 H         1 UNK         0.0000 
   3497 H(6)       19.4176   64.8236   16.9335 H         1 UNK         0.0000 
   3498 H(7)       20.9718   64.3399   14.3248 H         1 UNK         0.0000 
   3499 H(8)       19.8967   65.5215   14.9645 H         1 UNK         0.0000 
   3500 H(9)       21.5740   65.8875   14.6168 H         1 UNK         0.0000 
   3501 O(1)       23.2504   74.6097   19.4793 O.3       1 UNK         0.0000 
   3502 O(2)       21.2526   68.4409   19.3635 O.2       1 UNK         0.0000 
   3503 N(1)       23.4338   69.0453   19.5512 N.am      1 UNK         0.0000 
   3504 C(1)       23.3343   70.4537   19.5000 C.ar      1 UNK         0.0000 
   3505 C(2)       22.2522   71.1420   18.9517 C.ar      1 UNK         0.0000 
   3506 C(3)       22.2451   72.5338   18.9482 C.ar      1 UNK         0.0000 
   3507 C(4)       23.3152   73.2484   19.4805 C.ar      1 UNK         0.0000 
   3508 C(5)       24.4108   72.5605   20.0007 C.ar      1 UNK         0.0000 
   3509 C(6)       24.4161   71.1729   20.0094 C.ar      1 UNK         0.0000 
   3510 C(7)       22.4430   68.1400   19.5044 C.2       1 UNK         0.0000 
   3511 C(8)       22.8839   66.7059   19.6254 C.3       1 UNK         0.0000 
   3512 H(1)       21.4116   70.5994   18.5370 H         1 UNK         0.0000 
   3513 H(2)       21.3943   73.0502   18.5211 H         1 UNK         0.0000 
   3514 H(3)       25.2539   73.1097   20.4010 H         1 UNK         0.0000 
   3515 H(4)       25.2667   70.6394   20.4154 H         1 UNK         0.0000 
   3516 H(5)       24.1239   74.9923   19.6273 H         1 UNK         0.0000 
   3517 H(6)       24.3597   68.6818   19.7204 H         1 UNK         0.0000 
   3518 H(7)       22.8056   66.2428   18.6762 H         1 UNK         0.0000 
   3519 H(8)       23.8806   66.6077   19.9694 H         1 UNK         0.0000 
   3520 H(9)       22.2034   66.1882   20.2502 H         1 UNK         0.0000 
   3521 O(1)       18.9166   68.1430   20.5721 O.3       1 UNK         0.0000 
   3522 O(2)       16.9187   66.9029   26.6161 O.2       1 UNK         0.0000 
   3523 N(1)       19.0999   66.8522   25.9852 N.am      1 UNK         0.0000 
   3524 C(1)       19.0004   67.2112   24.6223 C.ar      1 UNK         0.0000 
   3525 C(2)       17.9183   67.8970   24.0711 C.ar      1 UNK         0.0000 
   3526 C(3)       17.9112   68.2058   22.7140 C.ar      1 UNK         0.0000 
   3527 C(4)       18.9813   67.8431   21.9000 C.ar      1 UNK         0.0000 
   3528 C(5)       20.0769   67.1848   22.4571 C.ar      1 UNK         0.0000 
   3529 C(6)       20.0822   66.8719   23.8089 C.ar      1 UNK         0.0000 
   3530 C(7)       18.1091   66.6994   26.8787 C.2       1 UNK         0.0000 
   3531 C(8)       18.5500   66.2668   28.2514 C.3       1 UNK         0.0000 
   3532 H(1)       17.0777   68.1827   24.6914 H         1 UNK         0.0000 
   3533 H(2)       17.0604   68.7357   22.3037 H         1 UNK         0.0000 
   3534 H(3)       20.9200   66.9147   21.8334 H         1 UNK         0.0000 
   3535 H(4)       20.9328   66.3588   24.2404 H         1 UNK         0.0000 
   3536 H(5)       19.7900   68.0824   20.1663 H         1 UNK         0.0000 
   3537 H(6)       20.0258   66.6075   26.3027 H         1 UNK         0.0000 
   3538 H(7)       18.4717   67.0912   28.9114 H         1 UNK         0.0000 
   3539 H(8)       19.5467   65.9096   28.2717 H         1 UNK         0.0000 
   3540 H(9)       17.8695   65.5437   28.6194 H         1 UNK         0.0000 
   3541 O(1)       17.7838   71.5038   23.7569 O.3       1 UNK         0.0000 
   3542 O(2)       19.7816   77.6726   23.8727 O.2       1 UNK         0.0000 
   3543 N(1)       17.6005   77.0682   23.6850 N.am      1 UNK         0.0000 
   3544 C(1)       17.7000   75.6597   23.7362 C.ar      1 UNK         0.0000 
   3545 C(2)       18.7821   74.9715   24.2845 C.ar      1 UNK         0.0000 
   3546 C(3)       18.7891   73.5797   24.2881 C.ar      1 UNK         0.0000 
   3547 C(4)       17.7191   72.8651   23.7557 C.ar      1 UNK         0.0000 
   3548 C(5)       16.6235   73.5530   23.2355 C.ar      1 UNK         0.0000 
   3549 C(6)       16.6182   74.9406   23.2268 C.ar      1 UNK         0.0000 
   3550 C(7)       18.5913   77.9735   23.7318 C.2       1 UNK         0.0000 
   3551 C(8)       18.1504   79.4076   23.6108 C.3       1 UNK         0.0000 
   3552 H(1)       19.6226   75.5140   24.6992 H         1 UNK         0.0000 
   3553 H(2)       19.6400   73.0632   24.7151 H         1 UNK         0.0000 
   3554 H(3)       15.7803   73.0038   22.8352 H         1 UNK         0.0000 
   3555 H(4)       15.7676   75.4741   22.8209 H         1 UNK         0.0000 
   3556 H(5)       16.9104   71.1212   23.6089 H         1 UNK         0.0000 
   3557 H(6)       16.6745   77.4316   23.5158 H         1 UNK         0.0000 
   3558 H(7)       18.2287   79.8707   24.5600 H         1 UNK         0.0000 
   3559 H(8)       17.1536   79.5057   23.2668 H         1 UNK         0.0000 
   3560 H(9)       18.8309   79.9253   22.9860 H         1 UNK         0.0000 
   3561 O(1)       22.1177   66.5086    8.3393 O.3       1 UNK         0.0000 
   3562 O(2)       24.1155   67.7487    2.2953 O.2       1 UNK         0.0000 
   3563 N(1)       21.9344   67.7993    2.9262 N.am      1 UNK         0.0000 
   3564 C(1)       22.0338   67.4404    4.2891 C.ar      1 UNK         0.0000 
   3565 C(2)       23.1160   66.7545    4.8403 C.ar      1 UNK         0.0000 
   3566 C(3)       23.1230   66.4457    6.1975 C.ar      1 UNK         0.0000 
   3567 C(4)       22.0530   66.8084    7.0114 C.ar      1 UNK         0.0000 
   3568 C(5)       20.9574   67.4668    6.4543 C.ar      1 UNK         0.0000 
   3569 C(6)       20.9521   67.7797    5.1025 C.ar      1 UNK         0.0000 
   3570 C(7)       22.9252   67.9521    2.0327 C.2       1 UNK         0.0000 
   3571 C(8)       22.4843   68.3848    0.6600 C.3       1 UNK         0.0000 
   3572 H(1)       23.9565   66.4688    4.2200 H         1 UNK         0.0000 
   3573 H(2)       23.9738   65.9158    6.6077 H         1 UNK         0.0000 
   3574 H(3)       20.1142   67.7369    7.0780 H         1 UNK         0.0000 
   3575 H(4)       20.1015   68.2927    4.6710 H         1 UNK         0.0000 
   3576 H(5)       21.2443   66.5691    8.7451 H         1 UNK         0.0000 
   3577 H(6)       21.0084   68.0440    2.6087 H         1 UNK         0.0000 
   3578 H(7)       22.5626   67.5603    0.0000 H         1 UNK         0.0000 
   3579 H(8)       21.4875   68.7419    0.6397 H         1 UNK         0.0000 
   3580 H(9)       23.1648   69.1079    0.2920 H         1 UNK         0.0000 
   3581 O(1)       24.8412   77.8301    5.1545 O.3       1 UNK         0.0000 
   3582 O(2)       22.8434   71.6613    5.0387 O.2       1 UNK         0.0000 
   3583 N(1)       25.0246   72.2657    5.2264 N.am      1 UNK         0.0000 
   3584 C(1)       24.9251   73.6741    5.1752 C.ar      1 UNK         0.0000 
   3585 C(2)       23.8429   74.3624    4.6269 C.ar      1 UNK         0.0000 
   3586 C(3)       23.8359   75.7542    4.6234 C.ar      1 UNK         0.0000 
   3587 C(4)       24.9059   76.4688    5.1557 C.ar      1 UNK         0.0000 
   3588 C(5)       26.0015   75.7809    5.6759 C.ar      1 UNK         0.0000 
   3589 C(6)       26.0069   74.3933    5.6846 C.ar      1 UNK         0.0000 
   3590 C(7)       24.0338   71.3604    5.1796 C.2       1 UNK         0.0000 
   3591 C(8)       24.4746   69.9263    5.3006 C.3       1 UNK         0.0000 
   3592 H(1)       23.0024   73.8198    4.2122 H         1 UNK         0.0000 
   3593 H(2)       22.9851   76.2706    4.1963 H         1 UNK         0.0000 
   3594 H(3)       26.8447   76.3301    6.0762 H         1 UNK         0.0000 
   3595 H(4)       26.8575   73.8598    6.0906 H         1 UNK         0.0000 
   3596 H(5)       25.7147   78.2127    5.3025 H         1 UNK         0.0000 
   3597 H(6)       25.9505   71.9022    5.3956 H         1 UNK         0.0000 
   3598 H(7)       24.3964   69.4632    4.3514 H         1 UNK         0.0000 
   3599 H(8)       25.4714   69.8281    5.6446 H         1 UNK         0.0000 
   3600 H(9)       23.7942   69.4086    5.9254 H         1 UNK         0.0000 
   3601 O(1)       22.0981   86.0457    6.2473 O.3       1 UNK         0.0000 
   3602 O(2)       20.1003   84.8056   12.2913 O.2       1 UNK         0.0000 
   3603 N(1)       22.2814   84.7550   11.6604 N.am      1 UNK         0.0000 
   3604 C(1)       22.1820   85.1139   10.2975 C.ar      1 UNK         0.0000 
   3605 C(2)       21.0998   85.7998    9.7463 C.ar      1 UNK         0.0000 
   3606 C(3)       21.0928   86.1085    8.3892 C.ar      1 UNK         0.0000 
   3607 C(4)       22.1628   85.7459    7.5752 C.ar      1 UNK         0.0000 
   3608 C(5)       23.2584   85.0875    8.1323 C.ar      1 UNK         0.0000 
   3609 C(6)       23.2637   84.7746    9.4841 C.ar      1 UNK         0.0000 
   3610 C(7)       21.2907   84.6021   12.5539 C.2       1 UNK         0.0000 
   3611 C(8)       21.7315   84.1695   13.9266 C.3       1 UNK         0.0000 
   3612 H(1)       20.2593   86.0854   10.3666 H         1 UNK         0.0000 
   3613 H(2)       20.2420   86.6384    7.9789 H         1 UNK         0.0000 
   3614 H(3)       24.1016   84.8174    7.5086 H         1 UNK         0.0000 
   3615 H(4)       24.1144   84.2615    9.9156 H         1 UNK         0.0000 
   3616 H(5)       22.9716   85.9852    5.8415 H         1 UNK         0.0000 
   3617 H(6)       23.2074   84.5102   11.9779 H         1 UNK         0.0000 
   3618 H(7)       21.6533   84.9940   14.5866 H         1 UNK         0.0000 
   3619 H(8)       22.7283   83.8124   13.9469 H         1 UNK         0.0000 
   3620 H(9)       21.0510   83.4464   14.2946 H         1 UNK         0.0000 
   3621 O(1)       26.4516   74.7242    9.4321 O.3       1 UNK         0.0000 
   3622 O(2)       28.4494   80.8930    9.5479 O.2       1 UNK         0.0000 
   3623 N(1)       26.2683   80.2886    9.3602 N.am      1 UNK         0.0000 
   3624 C(1)       26.3677   78.8801    9.4114 C.ar      1 UNK         0.0000 
   3625 C(2)       27.4499   78.1919    9.9597 C.ar      1 UNK         0.0000 
   3626 C(3)       27.4569   76.8001    9.9633 C.ar      1 UNK         0.0000 
   3627 C(4)       26.3869   76.0855    9.4309 C.ar      1 UNK         0.0000 
   3628 C(5)       25.2913   76.7734    8.9107 C.ar      1 UNK         0.0000 
   3629 C(6)       25.2860   78.1610    8.9020 C.ar      1 UNK         0.0000 
   3630 C(7)       27.2591   81.1939    9.4070 C.2       1 UNK         0.0000 
   3631 C(8)       26.8182   82.6280    9.2860 C.3       1 UNK         0.0000 
   3632 H(1)       28.2904   78.7344   10.3744 H         1 UNK         0.0000 
   3633 H(2)       28.3077   76.2836   10.3903 H         1 UNK         0.0000 
   3634 H(3)       24.4481   76.2242    8.5104 H         1 UNK         0.0000 
   3635 H(4)       24.4354   78.6945    8.4961 H         1 UNK         0.0000 
   3636 H(5)       25.5782   74.3416    9.2841 H         1 UNK         0.0000 
   3637 H(6)       25.3423   80.6520    9.1910 H         1 UNK         0.0000 
   3638 H(7)       26.8965   83.0911   10.2352 H         1 UNK         0.0000 
   3639 H(8)       25.8214   82.7261    8.9420 H         1 UNK         0.0000 
   3640 H(9)       27.4987   83.1457    8.6612 H         1 UNK         0.0000 
   3641 O(1)       16.6315   86.9219   15.5017 O.3       1 UNK         0.0000 
   3642 O(2)       18.6293   88.1620    9.4577 O.2       1 UNK         0.0000 
   3643 N(1)       16.4482   88.2126   10.0886 N.am      1 UNK         0.0000 
   3644 C(1)       16.5476   87.8537   11.4515 C.ar      1 UNK         0.0000 
   3645 C(2)       17.6298   87.1678   12.0027 C.ar      1 UNK         0.0000 
   3646 C(3)       17.6368   86.8590   13.3599 C.ar      1 UNK         0.0000 
   3647 C(4)       16.5668   87.2217   14.1738 C.ar      1 UNK         0.0000 
   3648 C(5)       15.4712   87.8801   13.6167 C.ar      1 UNK         0.0000 
   3649 C(6)       15.4659   88.1930   12.2649 C.ar      1 UNK         0.0000 
   3650 C(7)       17.4389   88.3654    9.1951 C.2       1 UNK         0.0000 
   3651 C(8)       16.9981   88.7981    7.8224 C.3       1 UNK         0.0000 
   3652 H(1)       18.4703   86.8821   11.3824 H         1 UNK         0.0000 
   3653 H(2)       18.4876   86.3291   13.7701 H         1 UNK         0.0000 
   3654 H(3)       14.6280   88.1502   14.2404 H         1 UNK         0.0000 
   3655 H(4)       14.6153   88.7060   11.8334 H         1 UNK         0.0000 
   3656 H(5)       15.7581   86.9824   15.9075 H         1 UNK         0.0000 
   3657 H(6)       15.5222   88.4573    9.7711 H         1 UNK         0.0000 
   3658 H(7)       17.0764   87.9736    7.1624 H         1 UNK         0.0000 
   3659 H(8)       16.0013   89.1552    7.8021 H         1 UNK         0.0000 
   3660 H(9)       17.6786   89.5212    7.4544 H         1 UNK         0.0000 
   3661 O(1)       17.7642   83.5611   12.3169 O.3       1 UNK         0.0000 
   3662 O(2)       15.7664   77.3923   12.2011 O.2       1 UNK         0.0000 
   3663 N(1)       17.9476   77.9967   12.3888 N.am      1 UNK         0.0000 
   3664 C(1)       17.8481   79.4051   12.3376 C.ar      1 UNK         0.0000 
   3665 C(2)       16.7659   80.0933   11.7893 C.ar      1 UNK         0.0000 
   3666 C(3)       16.7589   81.4851   11.7858 C.ar      1 UNK         0.0000 
   3667 C(4)       17.8289   82.1997   12.3181 C.ar      1 UNK         0.0000 
   3668 C(5)       18.9245   81.5118   12.8383 C.ar      1 UNK         0.0000 
   3669 C(6)       18.9299   80.1243   12.8470 C.ar      1 UNK         0.0000 
   3670 C(7)       16.9568   77.0914   12.3420 C.2       1 UNK         0.0000 
   3671 C(8)       17.3976   75.6572   12.4630 C.3       1 UNK         0.0000 
   3672 H(1)       15.9254   79.5508   11.3746 H         1 UNK         0.0000 
   3673 H(2)       15.9081   82.0016   11.3587 H         1 UNK         0.0000 
   3674 H(3)       19.7677   82.0611   13.2386 H         1 UNK         0.0000 
   3675 H(4)       19.7805   79.5908   13.2530 H         1 UNK         0.0000 
   3676 H(5)       18.6377   83.9437   12.4649 H         1 UNK         0.0000 
   3677 H(6)       18.8735   77.6332   12.5580 H         1 UNK         0.0000 
   3678 H(7)       17.3194   75.1941   11.5138 H         1 UNK         0.0000 
   3679 H(8)       18.3944   75.5591   12.8070 H         1 UNK         0.0000 
   3680 H(9)       16.7172   75.1396   13.0878 H         1 UNK         0.0000 
   3681 O(1)       22.0981   91.7766   13.4097 O.3       1 UNK         0.0000 
   3682 O(2)       20.1003   90.5366   19.4537 O.2       1 UNK         0.0000 
   3683 N(1)       22.2814   90.4859   18.8228 N.am      1 UNK         0.0000 
   3684 C(1)       22.1820   90.8448   17.4599 C.ar      1 UNK         0.0000 
   3685 C(2)       21.0998   91.5307   16.9087 C.ar      1 UNK         0.0000 
   3686 C(3)       21.0928   91.8395   15.5516 C.ar      1 UNK         0.0000 
   3687 C(4)       22.1628   91.4768   14.7376 C.ar      1 UNK         0.0000 
   3688 C(5)       23.2584   90.8185   15.2947 C.ar      1 UNK         0.0000 
   3689 C(6)       23.2637   90.5056   16.6465 C.ar      1 UNK         0.0000 
   3690 C(7)       21.2907   90.3331   19.7163 C.2       1 UNK         0.0000 
   3691 C(8)       21.7315   89.9005   21.0890 C.3       1 UNK         0.0000 
   3692 H(1)       20.2593   91.8164   17.5290 H         1 UNK         0.0000 
   3693 H(2)       20.2420   92.3694   15.1413 H         1 UNK         0.0000 
   3694 H(3)       24.1016   90.5484   14.6710 H         1 UNK         0.0000 
   3695 H(4)       24.1144   89.9925   17.0780 H         1 UNK         0.0000 
   3696 H(5)       22.9716   91.7161   13.0039 H         1 UNK         0.0000 
   3697 H(6)       23.2074   90.2412   19.1403 H         1 UNK         0.0000 
   3698 H(7)       21.6533   90.7249   21.7490 H         1 UNK         0.0000 
   3699 H(8)       22.7283   89.5433   21.1093 H         1 UNK         0.0000 
   3700 H(9)       21.0510   89.1774   21.4570 H         1 UNK         0.0000 
   3701 O(1)       26.4516   80.4552   16.5945 O.3       1 UNK         0.0000 
   3702 O(2)       28.4494   86.6239   16.7103 O.2       1 UNK         0.0000 
   3703 N(1)       26.2683   86.0195   16.5226 N.am      1 UNK         0.0000 
   3704 C(1)       26.3677   84.6111   16.5738 C.ar      1 UNK         0.0000 
   3705 C(2)       27.4499   83.9229   17.1221 C.ar      1 UNK         0.0000 
   3706 C(3)       27.4569   82.5311   17.1257 C.ar      1 UNK         0.0000 
   3707 C(4)       26.3869   81.8165   16.5933 C.ar      1 UNK         0.0000 
   3708 C(5)       25.2913   82.5044   16.0731 C.ar      1 UNK         0.0000 
   3709 C(6)       25.2860   83.8919   16.0644 C.ar      1 UNK         0.0000 
   3710 C(7)       27.2591   86.9248   16.5694 C.2       1 UNK         0.0000 
   3711 C(8)       26.8182   88.3590   16.4484 C.3       1 UNK         0.0000 
   3712 H(1)       28.2904   84.4654   17.5368 H         1 UNK         0.0000 
   3713 H(2)       28.3077   82.0146   17.5527 H         1 UNK         0.0000 
   3714 H(3)       24.4481   81.9551   15.6728 H         1 UNK         0.0000 
   3715 H(4)       24.4354   84.4254   15.6585 H         1 UNK         0.0000 
   3716 H(5)       25.5782   80.0725   16.4465 H         1 UNK         0.0000 
   3717 H(6)       25.3423   86.3830   16.3534 H         1 UNK         0.0000 
   3718 H(7)       26.8965   88.8221   17.3976 H         1 UNK         0.0000 
   3719 H(8)       25.8214   88.4571   16.1044 H         1 UNK         0.0000 
   3720 H(9)       27.4987   88.8766   15.8236 H         1 UNK         0.0000 
   3721 O(1)       22.1177   77.9705   22.6641 O.3       1 UNK         0.0000 
   3722 O(2)       24.1155   79.2106   16.6201 O.2       1 UNK         0.0000 
   3723 N(1)       21.9344   79.2612   17.2510 N.am      1 UNK         0.0000 
   3724 C(1)       22.0338   78.9023   18.6139 C.ar      1 UNK         0.0000 
   3725 C(2)       23.1160   78.2164   19.1651 C.ar      1 UNK         0.0000 
   3726 C(3)       23.1230   77.9077   20.5223 C.ar      1 UNK         0.0000 
   3727 C(4)       22.0530   78.2703   21.3362 C.ar      1 UNK         0.0000 
   3728 C(5)       20.9574   78.9287   20.7791 C.ar      1 UNK         0.0000 
   3729 C(6)       20.9521   79.2416   19.4273 C.ar      1 UNK         0.0000 
   3730 C(7)       22.9252   79.4141   16.3575 C.2       1 UNK         0.0000 
   3731 C(8)       22.4843   79.8467   14.9848 C.3       1 UNK         0.0000 
   3732 H(1)       23.9565   77.9308   18.5448 H         1 UNK         0.0000 
   3733 H(2)       23.9738   77.3778   20.9325 H         1 UNK         0.0000 
   3734 H(3)       20.1142   79.1988   21.4028 H         1 UNK         0.0000 
   3735 H(4)       20.1015   79.7547   18.9958 H         1 UNK         0.0000 
   3736 H(5)       21.2443   78.0310   23.0699 H         1 UNK         0.0000 
   3737 H(6)       21.0084   79.5060   16.9335 H         1 UNK         0.0000 
   3738 H(7)       22.5626   79.0222   14.3248 H         1 UNK         0.0000 
   3739 H(8)       21.4875   80.2038   14.9645 H         1 UNK         0.0000 
   3740 H(9)       23.1648   80.5698   14.6168 H         1 UNK         0.0000 
   3741 O(1)       24.8412   89.2920   19.4793 O.3       1 UNK         0.0000 
   3742 O(2)       22.8434   83.1232   19.3635 O.2       1 UNK         0.0000 
   3743 N(1)       25.0246   83.7276   19.5512 N.am      1 UNK         0.0000 
   3744 C(1)       24.9251   85.1361   19.5000 C.ar      1 UNK         0.0000 
   3745 C(2)       23.8429   85.8243   18.9517 C.ar      1 UNK         0.0000 
   3746 C(3)       23.8359   87.2161   18.9482 C.ar      1 UNK         0.0000 
   3747 C(4)       24.9059   87.9307   19.4805 C.ar      1 UNK         0.0000 
   3748 C(5)       26.0015   87.2428   20.0007 C.ar      1 UNK         0.0000 
   3749 C(6)       26.0069   85.8552   20.0094 C.ar      1 UNK         0.0000 
   3750 C(7)       24.0338   82.8223   19.5044 C.2       1 UNK         0.0000 
   3751 C(8)       24.4746   81.3882   19.6254 C.3       1 UNK         0.0000 
   3752 H(1)       23.0024   85.2818   18.5370 H         1 UNK         0.0000 
   3753 H(2)       22.9851   87.7326   18.5211 H         1 UNK         0.0000 
   3754 H(3)       26.8447   87.7920   20.4010 H         1 UNK         0.0000 
   3755 H(4)       26.8575   85.3217   20.4154 H         1 UNK         0.0000 
   3756 H(5)       25.7147   89.6746   19.6273 H         1 UNK         0.0000 
   3757 H(6)       25.9505   83.3642   19.7204 H         1 UNK         0.0000 
   3758 H(7)       24.3964   80.9251   18.6762 H         1 UNK         0.0000 
   3759 H(8)       25.4714   81.2901   19.9694 H         1 UNK         0.0000 
   3760 H(9)       23.7942   80.8705   20.2502 H         1 UNK         0.0000 
   3761 O(1)       20.5073   82.8253   20.5721 O.3       1 UNK         0.0000 
   3762 O(2)       18.5095   81.5852   26.6161 O.2       1 UNK         0.0000 
   3763 N(1)       20.6907   81.5346   25.9852 N.am      1 UNK         0.0000 
   3764 C(1)       20.5912   81.8935   24.6223 C.ar      1 UNK         0.0000 
   3765 C(2)       19.5091   82.5794   24.0711 C.ar      1 UNK         0.0000 
   3766 C(3)       19.5020   82.8881   22.7140 C.ar      1 UNK         0.0000 
   3767 C(4)       20.5720   82.5255   21.9000 C.ar      1 UNK         0.0000 
   3768 C(5)       21.6677   81.8671   22.4571 C.ar      1 UNK         0.0000 
   3769 C(6)       21.6730   81.5542   23.8089 C.ar      1 UNK         0.0000 
   3770 C(7)       19.6999   81.3817   26.8787 C.2       1 UNK         0.0000 
   3771 C(8)       20.1407   80.9491   28.2514 C.3       1 UNK         0.0000 
   3772 H(1)       18.6685   82.8650   24.6914 H         1 UNK         0.0000 
   3773 H(2)       18.6512   83.4180   22.3037 H         1 UNK         0.0000 
   3774 H(3)       22.5108   81.5970   21.8334 H         1 UNK         0.0000 
   3775 H(4)       22.5236   81.0412   24.2404 H         1 UNK         0.0000 
   3776 H(5)       21.3808   82.7648   20.1663 H         1 UNK         0.0000 
   3777 H(6)       21.6166   81.2898   26.3027 H         1 UNK         0.0000 
   3778 H(7)       20.0625   81.7736   28.9114 H         1 UNK         0.0000 
   3779 H(8)       21.1375   80.5920   28.2717 H         1 UNK         0.0000 
   3780 H(9)       19.4603   80.2260   28.6194 H         1 UNK         0.0000 
   3781 O(1)       19.3746   86.1861   23.7569 O.3       1 UNK         0.0000 
   3782 O(2)       21.3724   92.3549   23.8727 O.2       1 UNK         0.0000 
   3783 N(1)       19.1913   91.7505   23.6850 N.am      1 UNK         0.0000 
   3784 C(1)       19.2907   90.3421   23.7362 C.ar      1 UNK         0.0000 
   3785 C(2)       20.3729   89.6538   24.2845 C.ar      1 UNK         0.0000 
   3786 C(3)       20.3799   88.2620   24.2881 C.ar      1 UNK         0.0000 
   3787 C(4)       19.3099   87.5474   23.7557 C.ar      1 UNK         0.0000 
   3788 C(5)       18.2143   88.2353   23.2355 C.ar      1 UNK         0.0000 
   3789 C(6)       18.2090   89.6229   23.2268 C.ar      1 UNK         0.0000 
   3790 C(7)       20.1821   92.6558   23.7318 C.2       1 UNK         0.0000 
   3791 C(8)       19.7412   94.0899   23.6108 C.3       1 UNK         0.0000 
   3792 H(1)       21.2134   90.1964   24.6992 H         1 UNK         0.0000 
   3793 H(2)       21.2307   87.7456   24.7151 H         1 UNK         0.0000 
   3794 H(3)       17.3711   87.6861   22.8352 H         1 UNK         0.0000 
   3795 H(4)       17.3584   90.1564   22.8209 H         1 UNK         0.0000 
   3796 H(5)       18.5012   85.8035   23.6089 H         1 UNK         0.0000 
   3797 H(6)       18.2653   92.1140   23.5158 H         1 UNK         0.0000 
   3798 H(7)       19.8195   94.5530   24.5600 H         1 UNK         0.0000 
   3799 H(8)       18.7444   94.1881   23.2668 H         1 UNK         0.0000 
   3800 H(9)       20.4217   94.6076   22.9860 H         1 UNK         0.0000 
   3801 O(1)       23.7085   81.1909    8.3393 O.3       1 UNK         0.0000 
   3802 O(2)       25.7063   82.4310    2.2953 O.2       1 UNK         0.0000 
   3803 N(1)       23.5252   82.4816    2.9262 N.am      1 UNK         0.0000 
   3804 C(1)       23.6246   82.1227    4.2891 C.ar      1 UNK         0.0000 
   3805 C(2)       24.7068   81.4368    4.8403 C.ar      1 UNK         0.0000 
   3806 C(3)       24.7138   81.1281    6.1975 C.ar      1 UNK         0.0000 
   3807 C(4)       23.6438   81.4907    7.0114 C.ar      1 UNK         0.0000 
   3808 C(5)       22.5482   82.1491    6.4543 C.ar      1 UNK         0.0000 
   3809 C(6)       22.5429   82.4620    5.1025 C.ar      1 UNK         0.0000 
   3810 C(7)       24.5160   82.6345    2.0327 C.2       1 UNK         0.0000 
   3811 C(8)       24.0751   83.0671    0.6600 C.3       1 UNK         0.0000 
   3812 H(1)       25.5473   81.1512    4.2200 H         1 UNK         0.0000 
   3813 H(2)       25.5646   80.5982    6.6077 H         1 UNK         0.0000 
   3814 H(3)       21.7050   82.4192    7.0780 H         1 UNK         0.0000 
   3815 H(4)       21.6923   82.9751    4.6710 H         1 UNK         0.0000 
   3816 H(5)       22.8351   81.2514    8.7451 H         1 UNK         0.0000 
   3817 H(6)       22.5992   82.7264    2.6087 H         1 UNK         0.0000 
   3818 H(7)       24.1534   82.2426    0.0000 H         1 UNK         0.0000 
   3819 H(8)       23.0783   83.4242    0.6397 H         1 UNK         0.0000 
   3820 H(9)       24.7556   83.7902    0.2920 H         1 UNK         0.0000 
   3821 O(1)       26.4320   92.5124    5.1545 O.3       1 UNK         0.0000 
   3822 O(2)       24.4342   86.3436    5.0387 O.2       1 UNK         0.0000 
   3823 N(1)       26.6153   86.9480    5.2264 N.am      1 UNK         0.0000 
   3824 C(1)       26.5159   88.3565    5.1752 C.ar      1 UNK         0.0000 
   3825 C(2)       25.4337   89.0447    4.6269 C.ar      1 UNK         0.0000 
   3826 C(3)       25.4267   90.4365    4.6234 C.ar      1 UNK         0.0000 
   3827 C(4)       26.4967   91.1511    5.1557 C.ar      1 UNK         0.0000 
   3828 C(5)       27.5923   90.4632    5.6759 C.ar      1 UNK         0.0000 
   3829 C(6)       27.5976   89.0756    5.6846 C.ar      1 UNK         0.0000 
   3830 C(7)       25.6246   86.0427    5.1796 C.2       1 UNK         0.0000 
   3831 C(8)       26.0654   84.6086    5.3006 C.3       1 UNK         0.0000 
   3832 H(1)       24.5932   88.5022    4.2122 H         1 UNK         0.0000 
   3833 H(2)       24.5759   90.9530    4.1963 H         1 UNK         0.0000 
   3834 H(3)       28.4355   91.0124    6.0762 H         1 UNK         0.0000 
   3835 H(4)       28.4483   88.5421    6.0906 H         1 UNK         0.0000 
   3836 H(5)       27.3054   92.8950    5.3025 H         1 UNK         0.0000 
   3837 H(6)       27.5413   86.5846    5.3956 H         1 UNK         0.0000 
   3838 H(7)       25.9872   84.1455    4.3514 H         1 UNK         0.0000 
   3839 H(8)       27.0622   84.5105    5.6446 H         1 UNK         0.0000 
   3840 H(9)       25.3849   84.0909    5.9254 H         1 UNK         0.0000 
   3841 O(1)       23.6889  100.7280    6.2473 O.3       1 UNK         0.0000 
   3842 O(2)       21.6911   99.4879   12.2913 O.2       1 UNK         0.0000 
   3843 N(1)       23.8722   99.4373   11.6604 N.am      1 UNK         0.0000 
   3844 C(1)       23.7728   99.7962   10.2975 C.ar      1 UNK         0.0000 
   3845 C(2)       22.6906  100.4821    9.7463 C.ar      1 UNK         0.0000 
   3846 C(3)       22.6836  100.7909    8.3892 C.ar      1 UNK         0.0000 
   3847 C(4)       23.7536  100.4282    7.5752 C.ar      1 UNK         0.0000 
   3848 C(5)       24.8492   99.7698    8.1323 C.ar      1 UNK         0.0000 
   3849 C(6)       24.8545   99.4569    9.4841 C.ar      1 UNK         0.0000 
   3850 C(7)       22.8815   99.2845   12.5539 C.2       1 UNK         0.0000 
   3851 C(8)       23.3223   98.8518   13.9266 C.3       1 UNK         0.0000 
   3852 H(1)       21.8501  100.7678   10.3666 H         1 UNK         0.0000 
   3853 H(2)       21.8328  101.3208    7.9789 H         1 UNK         0.0000 
   3854 H(3)       25.6924   99.4997    7.5086 H         1 UNK         0.0000 
   3855 H(4)       25.7051   98.9439    9.9156 H         1 UNK         0.0000 
   3856 H(5)       24.5623  100.6675    5.8415 H         1 UNK         0.0000 
   3857 H(6)       24.7982   99.1926   11.9779 H         1 UNK         0.0000 
   3858 H(7)       23.2440   99.6763   14.5866 H         1 UNK         0.0000 
   3859 H(8)       24.3191   98.4947   13.9469 H         1 UNK         0.0000 
   3860 H(9)       22.6418   98.1287   14.2946 H         1 UNK         0.0000 
   3861 O(1)       28.0424   89.4065    9.4321 O.3       1 UNK         0.0000 
   3862 O(2)       30.0402   95.5753    9.5479 O.2       1 UNK         0.0000 
   3863 N(1)       27.8591   94.9709    9.3602 N.am      1 UNK         0.0000 
   3864 C(1)       27.9585   93.5625    9.4114 C.ar      1 UNK         0.0000 
   3865 C(2)       29.0407   92.8742    9.9597 C.ar      1 UNK         0.0000 
   3866 C(3)       29.0477   91.4824    9.9633 C.ar      1 UNK         0.0000 
   3867 C(4)       27.9777   90.7678    9.4309 C.ar      1 UNK         0.0000 
   3868 C(5)       26.8821   91.4557    8.9107 C.ar      1 UNK         0.0000 
   3869 C(6)       26.8768   92.8433    8.9020 C.ar      1 UNK         0.0000 
   3870 C(7)       28.8498   95.8762    9.4070 C.2       1 UNK         0.0000 
   3871 C(8)       28.4090   97.3103    9.2860 C.3       1 UNK         0.0000 
   3872 H(1)       29.8812   93.4168   10.3744 H         1 UNK         0.0000 
   3873 H(2)       29.8985   90.9660   10.3903 H         1 UNK         0.0000 
   3874 H(3)       26.0389   90.9065    8.5104 H         1 UNK         0.0000 
   3875 H(4)       26.0262   93.3768    8.4961 H         1 UNK         0.0000 
   3876 H(5)       27.1690   89.0239    9.2841 H         1 UNK         0.0000 
   3877 H(6)       26.9331   95.3344    9.1910 H         1 UNK         0.0000 
   3878 H(7)       28.4872   97.7734   10.2352 H         1 UNK         0.0000 
   3879 H(8)       27.4122   97.4085    8.9420 H         1 UNK         0.0000 
   3880 H(9)       29.0895   97.8280    8.6612 H         1 UNK         0.0000 
   3881 O(1)       18.2223  101.6042   15.5017 O.3       1 UNK         0.0000 
   3882 O(2)       20.2201  102.8443    9.4577 O.2       1 UNK         0.0000 
   3883 N(1)       18.0390  102.8949   10.0886 N.am      1 UNK         0.0000 
   3884 C(1)       18.1384  102.5360   11.4515 C.ar      1 UNK         0.0000 
   3885 C(2)       19.2206  101.8501   12.0027 C.ar      1 UNK         0.0000 
   3886 C(3)       19.2276  101.5414   13.3599 C.ar      1 UNK         0.0000 
   3887 C(4)       18.1576  101.9040   14.1738 C.ar      1 UNK         0.0000 
   3888 C(5)       17.0620  102.5624   13.6167 C.ar      1 UNK         0.0000 
   3889 C(6)       17.0567  102.8753   12.2649 C.ar      1 UNK         0.0000 
   3890 C(7)       19.0297  103.0478    9.1951 C.2       1 UNK         0.0000 
   3891 C(8)       18.5889  103.4804    7.8224 C.3       1 UNK         0.0000 
   3892 H(1)       20.0611  101.5645   11.3824 H         1 UNK         0.0000 
   3893 H(2)       20.0784  101.0115   13.7701 H         1 UNK         0.0000 
   3894 H(3)       16.2188  102.8325   14.2404 H         1 UNK         0.0000 
   3895 H(4)       16.2060  103.3883   11.8334 H         1 UNK         0.0000 
   3896 H(5)       17.3488  101.6647   15.9075 H         1 UNK         0.0000 
   3897 H(6)       17.1130  103.1397    9.7711 H         1 UNK         0.0000 
   3898 H(7)       18.6671  102.6559    7.1624 H         1 UNK         0.0000 
   3899 H(8)       17.5921  103.8375    7.8021 H         1 UNK         0.0000 
   3900 H(9)       19.2694  104.2035    7.4544 H         1 UNK         0.0000 
   3901 O(1)       19.3550   98.2434   12.3169 O.3       1 UNK         0.0000 
   3902 O(2)       17.3572   92.0746   12.2011 O.2       1 UNK         0.0000 
   3903 N(1)       19.5383   92.6790   12.3888 N.am      1 UNK         0.0000 
   3904 C(1)       19.4389   94.0874   12.3376 C.ar      1 UNK         0.0000 
   3905 C(2)       18.3567   94.7757   11.7893 C.ar      1 UNK         0.0000 
   3906 C(3)       18.3497   96.1675   11.7858 C.ar      1 UNK         0.0000 
   3907 C(4)       19.4197   96.8821   12.3181 C.ar      1 UNK         0.0000 
   3908 C(5)       20.5153   96.1941   12.8383 C.ar      1 UNK         0.0000 
   3909 C(6)       20.5206   94.8066   12.8470 C.ar      1 UNK         0.0000 
   3910 C(7)       18.5476   91.7737   12.3420 C.2       1 UNK         0.0000 
   3911 C(8)       18.9884   90.3396   12.4630 C.3       1 UNK         0.0000 
   3912 H(1)       17.5162   94.2331   11.3746 H         1 UNK         0.0000 
   3913 H(2)       17.4989   96.6839   11.3587 H         1 UNK         0.0000 
   3914 H(3)       21.3585   96.7434   13.2386 H         1 UNK         0.0000 
   3915 H(4)       21.3713   94.2731   13.2530 H         1 UNK         0.0000 
   3916 H(5)       20.2284   98.6260   12.4649 H         1 UNK         0.0000 
   3917 H(6)       20.4643   92.3155   12.5580 H         1 UNK         0.0000 
   3918 H(7)       18.9102   89.8765   11.5138 H         1 UNK         0.0000 
   3919 H(8)       19.9852   90.2414   12.8070 H         1 UNK         0.0000 
   3920 H(9)       18.3079   89.8219   13.0878 H         1 UNK         0.0000 
   3921 O(1)       23.6889  106.4590   13.4097 O.3       1 UNK         0.0000 
   3922 O(2)       21.6911  105.2189   19.4537 O.2       1 UNK         0.0000 
   3923 N(1)       23.8722  105.1683   18.8228 N.am      1 UNK         0.0000 
   3924 C(1)       23.7728  105.5272   17.4599 C.ar      1 UNK         0.0000 
   3925 C(2)       22.6906  106.2131   16.9087 C.ar      1 UNK         0.0000 
   3926 C(3)       22.6836  106.5218   15.5516 C.ar      1 UNK         0.0000 
   3927 C(4)       23.7536  106.1592   14.7376 C.ar      1 UNK         0.0000 
   3928 C(5)       24.8492  105.5008   15.2947 C.ar      1 UNK         0.0000 
   3929 C(6)       24.8545  105.1879   16.6465 C.ar      1 UNK         0.0000 
   3930 C(7)       22.8815  105.0154   19.7163 C.2       1 UNK         0.0000 
   3931 C(8)       23.3223  104.5828   21.0890 C.3       1 UNK         0.0000 
   3932 H(1)       21.8501  106.4987   17.5290 H         1 UNK         0.0000 
   3933 H(2)       21.8328  107.0517   15.1413 H         1 UNK         0.0000 
   3934 H(3)       25.6924  105.2307   14.6710 H         1 UNK         0.0000 
   3935 H(4)       25.7051  104.6748   17.0780 H         1 UNK         0.0000 
   3936 H(5)       24.5623  106.3985   13.0039 H         1 UNK         0.0000 
   3937 H(6)       24.7982  104.9235   19.1403 H         1 UNK         0.0000 
   3938 H(7)       23.2440  105.4073   21.7490 H         1 UNK         0.0000 
   3939 H(8)       24.3191  104.2257   21.1093 H         1 UNK         0.0000 
   3940 H(9)       22.6418  103.8597   21.4570 H         1 UNK         0.0000 
   3941 O(1)       28.0424   95.1375   16.5945 O.3       1 UNK         0.0000 
   3942 O(2)       30.0402  101.3063   16.7103 O.2       1 UNK         0.0000 
   3943 N(1)       27.8591  100.7019   16.5226 N.am      1 UNK         0.0000 
   3944 C(1)       27.9585   99.2934   16.5738 C.ar      1 UNK         0.0000 
   3945 C(2)       29.0407   98.6052   17.1221 C.ar      1 UNK         0.0000 
   3946 C(3)       29.0477   97.2134   17.1257 C.ar      1 UNK         0.0000 
   3947 C(4)       27.9777   96.4988   16.5933 C.ar      1 UNK         0.0000 
   3948 C(5)       26.8821   97.1867   16.0731 C.ar      1 UNK         0.0000 
   3949 C(6)       26.8768   98.5743   16.0644 C.ar      1 UNK         0.0000 
   3950 C(7)       28.8498  101.6072   16.5694 C.2       1 UNK         0.0000 
   3951 C(8)       28.4090  103.0413   16.4484 C.3       1 UNK         0.0000 
   3952 H(1)       29.8812   99.1477   17.5368 H         1 UNK         0.0000 
   3953 H(2)       29.8985   96.6969   17.5527 H         1 UNK         0.0000 
   3954 H(3)       26.0389   96.6375   15.6728 H         1 UNK         0.0000 
   3955 H(4)       26.0262   99.1078   15.6585 H         1 UNK         0.0000 
   3956 H(5)       27.1690   94.7549   16.4465 H         1 UNK         0.0000 
   3957 H(6)       26.9331  101.0653   16.3534 H         1 UNK         0.0000 
   3958 H(7)       28.4872  103.5044   17.3976 H         1 UNK         0.0000 
   3959 H(8)       27.4122  103.1394   16.1044 H         1 UNK         0.0000 
   3960 H(9)       29.0895  103.5590   15.8236 H         1 UNK         0.0000 
   3961 O(1)       23.7085   92.6529   22.6641 O.3       1 UNK         0.0000 
   3962 O(2)       25.7063   93.8929   16.6201 O.2       1 UNK         0.0000 
   3963 N(1)       23.5252   93.9436   17.2510 N.am      1 UNK         0.0000 
   3964 C(1)       23.6246   93.5847   18.6139 C.ar      1 UNK         0.0000 
   3965 C(2)       24.7068   92.8988   19.1651 C.ar      1 UNK         0.0000 
   3966 C(3)       24.7138   92.5900   20.5223 C.ar      1 UNK         0.0000 
   3967 C(4)       23.6438   92.9527   21.3362 C.ar      1 UNK         0.0000 
   3968 C(5)       22.5482   93.6110   20.7791 C.ar      1 UNK         0.0000 
   3969 C(6)       22.5429   93.9239   19.4273 C.ar      1 UNK         0.0000 
   3970 C(7)       24.5160   94.0964   16.3575 C.2       1 UNK         0.0000 
   3971 C(8)       24.0751   94.5290   14.9848 C.3       1 UNK         0.0000 
   3972 H(1)       25.5473   92.6131   18.5448 H         1 UNK         0.0000 
   3973 H(2)       25.5646   92.0601   20.9325 H         1 UNK         0.0000 
   3974 H(3)       21.7050   93.8811   21.4028 H         1 UNK         0.0000 
   3975 H(4)       21.6923   94.4370   18.9958 H         1 UNK         0.0000 
   3976 H(5)       22.8351   92.7134   23.0699 H         1 UNK         0.0000 
   3977 H(6)       22.5992   94.1883   16.9335 H         1 UNK         0.0000 
   3978 H(7)       24.1534   93.7046   14.3248 H         1 UNK         0.0000 
   3979 H(8)       23.0783   94.8862   14.9645 H         1 UNK         0.0000 
   3980 H(9)       24.7556   95.2521   14.6168 H         1 UNK         0.0000 
   3981 O(1)       26.4320  103.9743   19.4793 O.3       1 UNK         0.0000 
   3982 O(2)       24.4342   97.8056   19.3635 O.2       1 UNK         0.0000 
   3983 N(1)       26.6153   98.4100   19.5512 N.am      1 UNK         0.0000 
   3984 C(1)       26.5159   99.8184   19.5000 C.ar      1 UNK         0.0000 
   3985 C(2)       25.4337  100.5066   18.9517 C.ar      1 UNK         0.0000 
   3986 C(3)       25.4267  101.8984   18.9482 C.ar      1 UNK         0.0000 
   3987 C(4)       26.4967  102.6130   19.4805 C.ar      1 UNK         0.0000 
   3988 C(5)       27.5923  101.9251   20.0007 C.ar      1 UNK         0.0000 
   3989 C(6)       27.5976  100.5376   20.0094 C.ar      1 UNK         0.0000 
   3990 C(7)       25.6246   97.5047   19.5044 C.2       1 UNK         0.0000 
   3991 C(8)       26.0654   96.0705   19.6254 C.3       1 UNK         0.0000 
   3992 H(1)       24.5932   99.9641   18.5370 H         1 UNK         0.0000 
   3993 H(2)       24.5759  102.4149   18.5211 H         1 UNK         0.0000 
   3994 H(3)       28.4355  102.4744   20.4010 H         1 UNK         0.0000 
   3995 H(4)       28.4483  100.0041   20.4154 H         1 UNK         0.0000 
   3996 H(5)       27.3054  104.3570   19.6273 H         1 UNK         0.0000 
   3997 H(6)       27.5413   98.0465   19.7204 H         1 UNK         0.0000 
   3998 H(7)       25.9872   95.6074   18.6762 H         1 UNK         0.0000 
   3999 H(8)       27.0622   95.9724   19.9694 H         1 UNK         0.0000 
   4000 H(9)       25.3849   95.5529   20.2502 H         1 UNK         0.0000 
   4001 O(1)       22.0981   97.5076   20.5721 O.3       1 UNK         0.0000 
   4002 O(2)       20.1003   96.2675   26.6161 O.2       1 UNK         0.0000 
   4003 N(1)       22.2814   96.2169   25.9852 N.am      1 UNK         0.0000 
   4004 C(1)       22.1820   96.5758   24.6223 C.ar      1 UNK         0.0000 
   4005 C(2)       21.0998   97.2617   24.0711 C.ar      1 UNK         0.0000 
   4006 C(3)       21.0928   97.5705   22.7140 C.ar      1 UNK         0.0000 
   4007 C(4)       22.1628   97.2078   21.9000 C.ar      1 UNK         0.0000 
   4008 C(5)       23.2584   96.5494   22.4571 C.ar      1 UNK         0.0000 
   4009 C(6)       23.2637   96.2365   23.8089 C.ar      1 UNK         0.0000 
   4010 C(7)       21.2907   96.0641   26.8787 C.2       1 UNK         0.0000 
   4011 C(8)       21.7315   95.6314   28.2514 C.3       1 UNK         0.0000 
   4012 H(1)       20.2593   97.5474   24.6914 H         1 UNK         0.0000 
   4013 H(2)       20.2420   98.1004   22.3037 H         1 UNK         0.0000 
   4014 H(3)       24.1016   96.2793   21.8334 H         1 UNK         0.0000 
   4015 H(4)       24.1144   95.7235   24.2404 H         1 UNK         0.0000 
   4016 H(5)       22.9716   97.4471   20.1663 H         1 UNK         0.0000 
   4017 H(6)       23.2074   95.9722   26.3027 H         1 UNK         0.0000 
   4018 H(7)       21.6533   96.4559   28.9114 H         1 UNK         0.0000 
   4019 H(8)       22.7283   95.2743   28.2717 H         1 UNK         0.0000 
   4020 H(9)       21.0510   94.9083   28.6194 H         1 UNK         0.0000 
   4021 O(1)       20.9654  100.8684   23.7569 O.3       1 UNK         0.0000 
   4022 O(2)       22.9632  107.0372   23.8727 O.2       1 UNK         0.0000 
   4023 N(1)       20.7821  106.4328   23.6850 N.am      1 UNK         0.0000 
   4024 C(1)       20.8815  105.0244   23.7362 C.ar      1 UNK         0.0000 
   4025 C(2)       21.9637  104.3362   24.2845 C.ar      1 UNK         0.0000 
   4026 C(3)       21.9707  102.9444   24.2881 C.ar      1 UNK         0.0000 
   4027 C(4)       20.9007  102.2298   23.7557 C.ar      1 UNK         0.0000 
   4028 C(5)       19.8051  102.9177   23.2355 C.ar      1 UNK         0.0000 
   4029 C(6)       19.7998  104.3052   23.2268 C.ar      1 UNK         0.0000 
   4030 C(7)       21.7728  107.3381   23.7318 C.2       1 UNK         0.0000 
   4031 C(8)       21.3320  108.7723   23.6108 C.3       1 UNK         0.0000 
   4032 H(1)       22.8042  104.8787   24.6992 H         1 UNK         0.0000 
   4033 H(2)       22.8215  102.4279   24.7151 H         1 UNK         0.0000 
   4034 H(3)       18.9619  102.3684   22.8352 H         1 UNK         0.0000 
   4035 H(4)       18.9491  104.8387   22.8209 H         1 UNK         0.0000 
   4036 H(5)       20.0920  100.4858   23.6089 H         1 UNK         0.0000 
   4037 H(6)       19.8561  106.7963   23.5158 H         1 UNK         0.0000 
   4038 H(7)       21.4102  109.2354   24.5600 H         1 UNK         0.0000 
   4039 H(8)       20.3352  108.8704   23.2668 H         1 UNK         0.0000 
   4040 H(9)       22.0125  109.2899   22.9860 H         1 UNK         0.0000 
   4041 O(1)       25.2993   95.8732    8.3393 O.3       1 UNK         0.0000 
   4042 O(2)       27.2971   97.1133    2.2953 O.2       1 UNK         0.0000 
   4043 N(1)       25.1160   97.1640    2.9262 N.am      1 UNK         0.0000 
   4044 C(1)       25.2154   96.8050    4.2891 C.ar      1 UNK         0.0000 
   4045 C(2)       26.2976   96.1192    4.8403 C.ar      1 UNK         0.0000 
   4046 C(3)       26.3046   95.8104    6.1975 C.ar      1 UNK         0.0000 
   4047 C(4)       25.2346   96.1731    7.0114 C.ar      1 UNK         0.0000 
   4048 C(5)       24.1390   96.8314    6.4543 C.ar      1 UNK         0.0000 
   4049 C(6)       24.1337   97.1443    5.1025 C.ar      1 UNK         0.0000 
   4050 C(7)       26.1067   97.3168    2.0327 C.2       1 UNK         0.0000 
   4051 C(8)       25.6659   97.7494    0.6600 C.3       1 UNK         0.0000 
   4052 H(1)       27.1381   95.8335    4.2200 H         1 UNK         0.0000 
   4053 H(2)       27.1554   95.2805    6.6077 H         1 UNK         0.0000 
   4054 H(3)       23.2958   97.1015    7.0780 H         1 UNK         0.0000 
   4055 H(4)       23.2830   97.6574    4.6710 H         1 UNK         0.0000 
   4056 H(5)       24.4258   95.9338    8.7451 H         1 UNK         0.0000 
   4057 H(6)       24.1900   97.4087    2.6087 H         1 UNK         0.0000 
   4058 H(7)       25.7441   96.9250    0.0000 H         1 UNK         0.0000 
   4059 H(8)       24.6691   98.1066    0.6397 H         1 UNK         0.0000 
   4060 H(9)       26.3464   98.4725    0.2920 H         1 UNK         0.0000 
   4061 O(1)       28.0228  107.1947    5.1545 O.3       1 UNK         0.0000 
   4062 O(2)       26.0250  101.0260    5.0387 O.2       1 UNK         0.0000 
   4063 N(1)       28.2061  101.6304    5.2264 N.am      1 UNK         0.0000 
   4064 C(1)       28.1067  103.0388    5.1752 C.ar      1 UNK         0.0000 
   4065 C(2)       27.0245  103.7270    4.6269 C.ar      1 UNK         0.0000 
   4066 C(3)       27.0175  105.1188    4.6234 C.ar      1 UNK         0.0000 
   4067 C(4)       28.0875  105.8334    5.1557 C.ar      1 UNK         0.0000 
   4068 C(5)       29.1831  105.1455    5.6759 C.ar      1 UNK         0.0000 
   4069 C(6)       29.1884  103.7580    5.6846 C.ar      1 UNK         0.0000 
   4070 C(7)       27.2153  100.7251    5.1796 C.2       1 UNK         0.0000 
   4071 C(8)       27.6562   99.2909    5.3006 C.3       1 UNK         0.0000 
   4072 H(1)       26.1840  103.1845    4.2122 H         1 UNK         0.0000 
   4073 H(2)       26.1667  105.6353    4.1963 H         1 UNK         0.0000 
   4074 H(3)       30.0263  105.6948    6.0762 H         1 UNK         0.0000 
   4075 H(4)       30.0390  103.2245    6.0906 H         1 UNK         0.0000 
   4076 H(5)       28.8962  107.5773    5.3025 H         1 UNK         0.0000 
   4077 H(6)       29.1321  101.2669    5.3956 H         1 UNK         0.0000 
   4078 H(7)       27.5779   98.8278    4.3514 H         1 UNK         0.0000 
   4079 H(8)       28.6530   99.1928    5.6446 H         1 UNK         0.0000 
   4080 H(9)       26.9757   98.7733    5.9254 H         1 UNK         0.0000 
   4081 O(1)       25.2797  115.4103    6.2473 O.3       1 UNK         0.0000 
   4082 O(2)       23.2819  114.1703   12.2913 O.2       1 UNK         0.0000 
   4083 N(1)       25.4630  114.1196   11.6604 N.am      1 UNK         0.0000 
   4084 C(1)       25.3636  114.4785   10.2975 C.ar      1 UNK         0.0000 
   4085 C(2)       24.2814  115.1644    9.7463 C.ar      1 UNK         0.0000 
   4086 C(3)       24.2744  115.4732    8.3892 C.ar      1 UNK         0.0000 
   4087 C(4)       25.3444  115.1105    7.5752 C.ar      1 UNK         0.0000 
   4088 C(5)       26.4400  114.4521    8.1323 C.ar      1 UNK         0.0000 
   4089 C(6)       26.4453  114.1393    9.4841 C.ar      1 UNK         0.0000 
   4090 C(7)       24.4722  113.9668   12.5539 C.2       1 UNK         0.0000 
   4091 C(8)       24.9131  113.5342   13.9266 C.3       1 UNK         0.0000 
   4092 H(1)       23.4409  115.4501   10.3666 H         1 UNK         0.0000 
   4093 H(2)       23.4236  116.0031    7.9789 H         1 UNK         0.0000 
   4094 H(3)       27.2832  114.1821    7.5086 H         1 UNK         0.0000 
   4095 H(4)       27.2959  113.6262    9.9156 H         1 UNK         0.0000 
   4096 H(5)       26.1531  115.3498    5.8415 H         1 UNK         0.0000 
   4097 H(6)       26.3890  113.8749   11.9779 H         1 UNK         0.0000 
   4098 H(7)       24.8348  114.3586   14.5866 H         1 UNK         0.0000 
   4099 H(8)       25.9099  113.1770   13.9469 H         1 UNK         0.0000 
   4100 H(9)       24.2326  112.8111   14.2946 H         1 UNK         0.0000 
   4101 O(1)       29.6332  104.0888    9.4321 O.3       1 UNK         0.0000 
   4102 O(2)       31.6310  110.2576    9.5479 O.2       1 UNK         0.0000 
   4103 N(1)       29.4498  109.6532    9.3602 N.am      1 UNK         0.0000 
   4104 C(1)       29.5493  108.2448    9.4114 C.ar      1 UNK         0.0000 
   4105 C(2)       30.6315  107.5566    9.9597 C.ar      1 UNK         0.0000 
   4106 C(3)       30.6385  106.1648    9.9633 C.ar      1 UNK         0.0000 
   4107 C(4)       29.5685  105.4502    9.4309 C.ar      1 UNK         0.0000 
   4108 C(5)       28.4729  106.1381    8.9107 C.ar      1 UNK         0.0000 
   4109 C(6)       28.4675  107.5256    8.9020 C.ar      1 UNK         0.0000 
   4110 C(7)       30.4406  110.5585    9.4070 C.2       1 UNK         0.0000 
   4111 C(8)       29.9998  111.9927    9.2860 C.3       1 UNK         0.0000 
   4112 H(1)       31.4720  108.0991   10.3744 H         1 UNK         0.0000 
   4113 H(2)       31.4893  105.6483   10.3903 H         1 UNK         0.0000 
   4114 H(3)       27.6297  105.5888    8.5104 H         1 UNK         0.0000 
   4115 H(4)       27.6169  108.0591    8.4961 H         1 UNK         0.0000 
   4116 H(5)       28.7597  103.7062    9.2841 H         1 UNK         0.0000 
   4117 H(6)       28.5239  110.0167    9.1910 H         1 UNK         0.0000 
   4118 H(7)       30.0780  112.4558   10.2352 H         1 UNK         0.0000 
   4119 H(8)       29.0030  112.0908    8.9420 H         1 UNK         0.0000 
   4120 H(9)       30.6802  112.5103    8.6612 H         1 UNK         0.0000 
   4121 O(1)       19.8131  116.2865   15.5017 O.3       1 UNK         0.0000 
   4122 O(2)       21.8109  117.5266    9.4577 O.2       1 UNK         0.0000 
   4123 N(1)       19.6297  117.5773   10.0886 N.am      1 UNK         0.0000 
   4124 C(1)       19.7292  117.2183   11.4515 C.ar      1 UNK         0.0000 
   4125 C(2)       20.8113  116.5325   12.0027 C.ar      1 UNK         0.0000 
   4126 C(3)       20.8184  116.2237   13.3599 C.ar      1 UNK         0.0000 
   4127 C(4)       19.7484  116.5864   14.1738 C.ar      1 UNK         0.0000 
   4128 C(5)       18.6527  117.2447   13.6167 C.ar      1 UNK         0.0000 
   4129 C(6)       18.6474  117.5576   12.2649 C.ar      1 UNK         0.0000 
   4130 C(7)       20.6205  117.7301    9.1951 C.2       1 UNK         0.0000 
   4131 C(8)       20.1797  118.1627    7.8224 C.3       1 UNK         0.0000 
   4132 H(1)       21.6519  116.2468   11.3824 H         1 UNK         0.0000 
   4133 H(2)       21.6692  115.6938   13.7701 H         1 UNK         0.0000 
   4134 H(3)       17.8096  117.5148   14.2404 H         1 UNK         0.0000 
   4135 H(4)       17.7968  118.0707   11.8334 H         1 UNK         0.0000 
   4136 H(5)       18.9396  116.3471   15.9075 H         1 UNK         0.0000 
   4137 H(6)       18.7038  117.8220    9.7711 H         1 UNK         0.0000 
   4138 H(7)       20.2579  117.3383    7.1624 H         1 UNK         0.0000 
   4139 H(8)       19.1829  118.5199    7.8021 H         1 UNK         0.0000 
   4140 H(9)       20.8601  118.8858    7.4544 H         1 UNK         0.0000 
   4141 O(1)       20.9458  112.9257   12.3169 O.3       1 UNK         0.0000 
   4142 O(2)       18.9480  106.7569   12.2011 O.2       1 UNK         0.0000 
   4143 N(1)       21.1291  107.3613   12.3888 N.am      1 UNK         0.0000 
   4144 C(1)       21.0297  108.7698   12.3376 C.ar      1 UNK         0.0000 
   4145 C(2)       19.9475  109.4580   11.7893 C.ar      1 UNK         0.0000 
   4146 C(3)       19.9405  110.8498   11.7858 C.ar      1 UNK         0.0000 
   4147 C(4)       21.0105  111.5644   12.3181 C.ar      1 UNK         0.0000 
   4148 C(5)       22.1061  110.8765   12.8383 C.ar      1 UNK         0.0000 
   4149 C(6)       22.1114  109.4889   12.8470 C.ar      1 UNK         0.0000 
   4150 C(7)       20.1383  106.4560   12.3420 C.2       1 UNK         0.0000 
   4151 C(8)       20.5792  105.0219   12.4630 C.3       1 UNK         0.0000 
   4152 H(1)       19.1070  108.9154   11.3746 H         1 UNK         0.0000 
   4153 H(2)       19.0897  111.3663   11.3587 H         1 UNK         0.0000 
   4154 H(3)       22.9493  111.4257   13.2386 H         1 UNK         0.0000 
   4155 H(4)       22.9620  108.9554   13.2530 H         1 UNK         0.0000 
   4156 H(5)       21.8192  113.3083   12.4649 H         1 UNK         0.0000 
   4157 H(6)       22.0551  106.9979   12.5580 H         1 UNK         0.0000 
   4158 H(7)       20.5009  104.5588   11.5138 H         1 UNK         0.0000 
   4159 H(8)       21.5760  104.9238   12.8070 H         1 UNK         0.0000 
   4160 H(9)       19.8987  104.5042   13.0878 H         1 UNK         0.0000 
   4161 O(1)       25.2797  121.1413   13.4097 O.3       1 UNK         0.0000 
   4162 O(2)       23.2819  119.9012   19.4537 O.2       1 UNK         0.0000 
   4163 N(1)       25.4630  119.8506   18.8228 N.am      1 UNK         0.0000 
   4164 C(1)       25.3636  120.2095   17.4599 C.ar      1 UNK         0.0000 
   4165 C(2)       24.2814  120.8954   16.9087 C.ar      1 UNK         0.0000 
   4166 C(3)       24.2744  121.2042   15.5516 C.ar      1 UNK         0.0000 
   4167 C(4)       25.3444  120.8415   14.7376 C.ar      1 UNK         0.0000 
   4168 C(5)       26.4400  120.1831   15.2947 C.ar      1 UNK         0.0000 
   4169 C(6)       26.4453  119.8702   16.6465 C.ar      1 UNK         0.0000 
   4170 C(7)       24.4722  119.6978   19.7163 C.2       1 UNK         0.0000 
   4171 C(8)       24.9131  119.2651   21.0890 C.3       1 UNK         0.0000 
   4172 H(1)       23.4409  121.1810   17.5290 H         1 UNK         0.0000 
   4173 H(2)       23.4236  121.7341   15.1413 H         1 UNK         0.0000 
   4174 H(3)       27.2832  119.9130   14.6710 H         1 UNK         0.0000 
   4175 H(4)       27.2959  119.3572   17.0780 H         1 UNK         0.0000 
   4176 H(5)       26.1531  121.0808   13.0039 H         1 UNK         0.0000 
   4177 H(6)       26.3890  119.6059   19.1403 H         1 UNK         0.0000 
   4178 H(7)       24.8348  120.0896   21.7490 H         1 UNK         0.0000 
   4179 H(8)       25.9099  118.9080   21.1093 H         1 UNK         0.0000 
   4180 H(9)       24.2326  118.5420   21.4570 H         1 UNK         0.0000 
   4181 O(1)       29.6332  109.8198   16.5945 O.3       1 UNK         0.0000 
   4182 O(2)       31.6310  115.9886   16.7103 O.2       1 UNK         0.0000 
   4183 N(1)       29.4498  115.3842   16.5226 N.am      1 UNK         0.0000 
   4184 C(1)       29.5493  113.9758   16.5738 C.ar      1 UNK         0.0000 
   4185 C(2)       30.6315  113.2875   17.1221 C.ar      1 UNK         0.0000 
   4186 C(3)       30.6385  111.8957   17.1257 C.ar      1 UNK         0.0000 
   4187 C(4)       29.5685  111.1811   16.5933 C.ar      1 UNK         0.0000 
   4188 C(5)       28.4729  111.8690   16.0731 C.ar      1 UNK         0.0000 
   4189 C(6)       28.4675  113.2566   16.0644 C.ar      1 UNK         0.0000 
   4190 C(7)       30.4406  116.2895   16.5694 C.2       1 UNK         0.0000 
   4191 C(8)       29.9998  117.7236   16.4484 C.3       1 UNK         0.0000 
   4192 H(1)       31.4720  113.8301   17.5368 H         1 UNK         0.0000 
   4193 H(2)       31.4893  111.3793   17.5527 H         1 UNK         0.0000 
   4194 H(3)       27.6297  111.3198   15.6728 H         1 UNK         0.0000 
   4195 H(4)       27.6169  113.7901   15.6585 H         1 UNK         0.0000 
   4196 H(5)       28.7597  109.4372   16.4465 H         1 UNK         0.0000 
   4197 H(6)       28.5239  115.7477   16.3534 H         1 UNK         0.0000 
   4198 H(7)       30.0780  118.1867   17.3976 H         1 UNK         0.0000 
   4199 H(8)       29.0030  117.8218   16.1044 H         1 UNK         0.0000 
   4200 H(9)       30.6802  118.2413   15.8236 H         1 UNK         0.0000 
   4201 O(1)       25.2993  107.3352   22.6641 O.3       1 UNK         0.0000 
   4202 O(2)       27.2971  108.5753   16.6201 O.2       1 UNK         0.0000 
   4203 N(1)       25.1160  108.6259   17.2510 N.am      1 UNK         0.0000 
   4204 C(1)       25.2154  108.2670   18.6139 C.ar      1 UNK         0.0000 
   4205 C(2)       26.2976  107.5811   19.1651 C.ar      1 UNK         0.0000 
   4206 C(3)       26.3046  107.2723   20.5223 C.ar      1 UNK         0.0000 
   4207 C(4)       25.2346  107.6350   21.3362 C.ar      1 UNK         0.0000 
   4208 C(5)       24.1390  108.2934   20.7791 C.ar      1 UNK         0.0000 
   4209 C(6)       24.1337  108.6062   19.4273 C.ar      1 UNK         0.0000 
   4210 C(7)       26.1067  108.7787   16.3575 C.2       1 UNK         0.0000 
   4211 C(8)       25.6659  109.2114   14.9848 C.3       1 UNK         0.0000 
   4212 H(1)       27.1381  107.2954   18.5448 H         1 UNK         0.0000 
   4213 H(2)       27.1554  106.7424   20.9325 H         1 UNK         0.0000 
   4214 H(3)       23.2958  108.5635   21.4028 H         1 UNK         0.0000 
   4215 H(4)       23.2830  109.1193   18.9958 H         1 UNK         0.0000 
   4216 H(5)       24.4258  107.3957   23.0699 H         1 UNK         0.0000 
   4217 H(6)       24.1900  108.8706   16.9335 H         1 UNK         0.0000 
   4218 H(7)       25.7441  108.3869   14.3248 H         1 UNK         0.0000 
   4219 H(8)       24.6691  109.5685   14.9645 H         1 UNK         0.0000 
   4220 H(9)       26.3464  109.9345   14.6168 H         1 UNK         0.0000 
   4221 O(1)       28.0228  118.6567   19.4793 O.3       1 UNK         0.0000 
   4222 O(2)       26.0250  112.4879   19.3635 O.2       1 UNK         0.0000 
   4223 N(1)       28.2061  113.0923   19.5512 N.am      1 UNK         0.0000 
   4224 C(1)       28.1067  114.5007   19.5000 C.ar      1 UNK         0.0000 
   4225 C(2)       27.0245  115.1890   18.9517 C.ar      1 UNK         0.0000 
   4226 C(3)       27.0175  116.5808   18.9482 C.ar      1 UNK         0.0000 
   4227 C(4)       28.0875  117.2954   19.4805 C.ar      1 UNK         0.0000 
   4228 C(5)       29.1831  116.6074   20.0007 C.ar      1 UNK         0.0000 
   4229 C(6)       29.1884  115.2199   20.0094 C.ar      1 UNK         0.0000 
   4230 C(7)       27.2153  112.1870   19.5044 C.2       1 UNK         0.0000 
   4231 C(8)       27.6562  110.7529   19.6254 C.3       1 UNK         0.0000 
   4232 H(1)       26.1840  114.6464   18.5370 H         1 UNK         0.0000 
   4233 H(2)       26.1667  117.0972   18.5211 H         1 UNK         0.0000 
   4234 H(3)       30.0263  117.1567   20.4010 H         1 UNK         0.0000 
   4235 H(4)       30.0390  114.6864   20.4154 H         1 UNK         0.0000 
   4236 H(5)       28.8962  119.0393   19.6273 H         1 UNK         0.0000 
   4237 H(6)       29.1321  112.7288   19.7204 H         1 UNK         0.0000 
   4238 H(7)       27.5779  110.2898   18.6762 H         1 UNK         0.0000 
   4239 H(8)       28.6530  110.6547   19.9694 H         1 UNK         0.0000 
   4240 H(9)       26.9757  110.2352   20.2502 H         1 UNK         0.0000 
   4241 O(1)       23.6889  112.1899   20.5721 O.3       1 UNK         0.0000 
   4242 O(2)       21.6911  110.9499   26.6161 O.2       1 UNK         0.0000 
   4243 N(1)       23.8722  110.8992   25.9852 N.am      1 UNK         0.0000 
   4244 C(1)       23.7728  111.2581   24.6223 C.ar      1 UNK         0.0000 
   4245 C(2)       22.6906  111.9440   24.0711 C.ar      1 UNK         0.0000 
   4246 C(3)       22.6836  112.2528   22.7140 C.ar      1 UNK         0.0000 
   4247 C(4)       23.7536  111.8901   21.9000 C.ar      1 UNK         0.0000 
   4248 C(5)       24.8492  111.2318   22.4571 C.ar      1 UNK         0.0000 
   4249 C(6)       24.8545  110.9189   23.8089 C.ar      1 UNK         0.0000 
   4250 C(7)       22.8815  110.7464   26.8787 C.2       1 UNK         0.0000 
   4251 C(8)       23.3223  110.3138   28.2514 C.3       1 UNK         0.0000 
   4252 H(1)       21.8501  112.2297   24.6914 H         1 UNK         0.0000 
   4253 H(2)       21.8328  112.7827   22.3037 H         1 UNK         0.0000 
   4254 H(3)       25.6924  110.9617   21.8334 H         1 UNK         0.0000 
   4255 H(4)       25.7051  110.4058   24.2404 H         1 UNK         0.0000 
   4256 H(5)       24.5623  112.1294   20.1663 H         1 UNK         0.0000 
   4257 H(6)       24.7982  110.6545   26.3027 H         1 UNK         0.0000 
   4258 H(7)       23.2440  111.1382   28.9114 H         1 UNK         0.0000 
   4259 H(8)       24.3191  109.9566   28.2717 H         1 UNK         0.0000 
   4260 H(9)       22.6418  109.5907   28.6194 H         1 UNK         0.0000 
   4261 O(1)       22.5562  115.5508   23.7569 O.3       1 UNK         0.0000 
   4262 O(2)       24.5540  121.7196   23.8727 O.2       1 UNK         0.0000 
   4263 N(1)       22.3728  121.1152   23.6850 N.am      1 UNK         0.0000 
   4264 C(1)       22.4723  119.7067   23.7362 C.ar      1 UNK         0.0000 
   4265 C(2)       23.5545  119.0185   24.2845 C.ar      1 UNK         0.0000 
   4266 C(3)       23.5615  117.6267   24.2881 C.ar      1 UNK         0.0000 
   4267 C(4)       22.4915  116.9121   23.7557 C.ar      1 UNK         0.0000 
   4268 C(5)       21.3959  117.6000   23.2355 C.ar      1 UNK         0.0000 
   4269 C(6)       21.3905  118.9876   23.2268 C.ar      1 UNK         0.0000 
   4270 C(7)       23.3636  122.0205   23.7318 C.2       1 UNK         0.0000 
   4271 C(8)       22.9228  123.4546   23.6108 C.3       1 UNK         0.0000 
   4272 H(1)       24.3950  119.5610   24.6992 H         1 UNK         0.0000 
   4273 H(2)       24.4123  117.1102   24.7151 H         1 UNK         0.0000 
   4274 H(3)       20.5527  117.0508   22.8352 H         1 UNK         0.0000 
   4275 H(4)       20.5399  119.5211   22.8209 H         1 UNK         0.0000 
   4276 H(5)       21.6827  115.1682   23.6089 H         1 UNK         0.0000 
   4277 H(6)       21.4469  121.4786   23.5158 H         1 UNK         0.0000 
   4278 H(7)       23.0010  123.9177   24.5600 H         1 UNK         0.0000 
   4279 H(8)       21.9260  123.5527   23.2668 H         1 UNK         0.0000 
   4280 H(9)       23.6032  123.9723   22.9860 H         1 UNK         0.0000 
   4281 O(1)       26.8901  110.5556    8.3393 O.3       1 UNK         0.0000 
   4282 O(2)       28.8879  111.7957    2.2953 O.2       1 UNK         0.0000 
   4283 N(1)       26.7067  111.8463    2.9262 N.am      1 UNK         0.0000 
   4284 C(1)       26.8062  111.4874    4.2891 C.ar      1 UNK         0.0000 
   4285 C(2)       27.8883  110.8015    4.8403 C.ar      1 UNK         0.0000 
   4286 C(3)       27.8954  110.4927    6.1975 C.ar      1 UNK         0.0000 
   4287 C(4)       26.8254  110.8554    7.0114 C.ar      1 UNK         0.0000 
   4288 C(5)       25.7297  111.5138    6.4543 C.ar      1 UNK         0.0000 
   4289 C(6)       25.7244  111.8266    5.1025 C.ar      1 UNK         0.0000 
   4290 C(7)       27.6975  111.9991    2.0327 C.2       1 UNK         0.0000 
   4291 C(8)       27.2567  112.4318    0.6600 C.3       1 UNK         0.0000 
   4292 H(1)       28.7289  110.5158    4.2200 H         1 UNK         0.0000 
   4293 H(2)       28.7462  109.9628    6.6077 H         1 UNK         0.0000 
   4294 H(3)       24.8866  111.7839    7.0780 H         1 UNK         0.0000 
   4295 H(4)       24.8738  112.3397    4.6710 H         1 UNK         0.0000 
   4296 H(5)       26.0166  110.6161    8.7451 H         1 UNK         0.0000 
   4297 H(6)       25.7808  112.0910    2.6087 H         1 UNK         0.0000 
   4298 H(7)       27.3349  111.6073    0.0000 H         1 UNK         0.0000 
   4299 H(8)       26.2599  112.7889    0.6397 H         1 UNK         0.0000 
   4300 H(9)       27.9371  113.1549    0.2920 H         1 UNK         0.0000 
   4301 O(1)       29.6136  121.8771    5.1545 O.3       1 UNK         0.0000 
   4302 O(2)       27.6158  115.7083    5.0387 O.2       1 UNK         0.0000 
   4303 N(1)       29.7969  116.3127    5.2264 N.am      1 UNK         0.0000 
   4304 C(1)       29.6975  117.7211    5.1752 C.ar      1 UNK         0.0000 
   4305 C(2)       28.6153  118.4094    4.6269 C.ar      1 UNK         0.0000 
   4306 C(3)       28.6083  119.8012    4.6234 C.ar      1 UNK         0.0000 
   4307 C(4)       29.6783  120.5158    5.1557 C.ar      1 UNK         0.0000 
   4308 C(5)       30.7739  119.8278    5.6759 C.ar      1 UNK         0.0000 
   4309 C(6)       30.7792  118.4403    5.6846 C.ar      1 UNK         0.0000 
   4310 C(7)       28.8061  115.4074    5.1796 C.2       1 UNK         0.0000 
   4311 C(8)       29.2470  113.9733    5.3006 C.3       1 UNK         0.0000 
   4312 H(1)       27.7748  117.8668    4.2122 H         1 UNK         0.0000 
   4313 H(2)       27.7575  120.3176    4.1963 H         1 UNK         0.0000 
   4314 H(3)       31.6171  120.3771    6.0762 H         1 UNK         0.0000 
   4315 H(4)       31.6298  117.9068    6.0906 H         1 UNK         0.0000 
   4316 H(5)       30.4870  122.2597    5.3025 H         1 UNK         0.0000 
   4317 H(6)       30.7229  115.9492    5.3956 H         1 UNK         0.0000 
   4318 H(7)       29.1687  113.5102    4.3514 H         1 UNK         0.0000 
   4319 H(8)       30.2438  113.8751    5.6446 H         1 UNK         0.0000 
   4320 H(9)       28.5665  113.4556    5.9254 H         1 UNK         0.0000 
   4321 O(1)       26.8705  130.0927    6.2473 O.3       1 UNK         0.0000 
   4322 O(2)       24.8727  128.8526   12.2913 O.2       1 UNK         0.0000 
   4323 N(1)       27.0538  128.8020   11.6604 N.am      1 UNK         0.0000 
   4324 C(1)       26.9543  129.1609   10.2975 C.ar      1 UNK         0.0000 
   4325 C(2)       25.8722  129.8468    9.7463 C.ar      1 UNK         0.0000 
   4326 C(3)       25.8652  130.1555    8.3892 C.ar      1 UNK         0.0000 
   4327 C(4)       26.9352  129.7929    7.5752 C.ar      1 UNK         0.0000 
   4328 C(5)       28.0308  129.1345    8.1323 C.ar      1 UNK         0.0000 
   4329 C(6)       28.0361  128.8216    9.4841 C.ar      1 UNK         0.0000 
   4330 C(7)       26.0630  128.6491   12.5539 C.2       1 UNK         0.0000 
   4331 C(8)       26.5039  128.2165   13.9266 C.3       1 UNK         0.0000 
   4332 H(1)       25.0317  130.1324   10.3666 H         1 UNK         0.0000 
   4333 H(2)       25.0143  130.6854    7.9789 H         1 UNK         0.0000 
   4334 H(3)       28.8740  128.8644    7.5086 H         1 UNK         0.0000 
   4335 H(4)       28.8867  128.3085    9.9156 H         1 UNK         0.0000 
   4336 H(5)       27.7439  130.0322    5.8415 H         1 UNK         0.0000 
   4337 H(6)       27.9798  128.5572   11.9779 H         1 UNK         0.0000 
   4338 H(7)       26.4256  129.0410   14.5866 H         1 UNK         0.0000 
   4339 H(8)       27.5007  127.8594   13.9469 H         1 UNK         0.0000 
   4340 H(9)       25.8234  127.4934   14.2946 H         1 UNK         0.0000 
   4341 O(1)       31.2240  118.7712    9.4321 O.3       1 UNK         0.0000 
   4342 O(2)       33.2218  124.9400    9.5479 O.2       1 UNK         0.0000 
   4343 N(1)       31.0406  124.3356    9.3602 N.am      1 UNK         0.0000 
   4344 C(1)       31.1401  122.9271    9.4114 C.ar      1 UNK         0.0000 
   4345 C(2)       32.2222  122.2389    9.9597 C.ar      1 UNK         0.0000 
   4346 C(3)       32.2293  120.8471    9.9633 C.ar      1 UNK         0.0000 
   4347 C(4)       31.1592  120.1325    9.4309 C.ar      1 UNK         0.0000 
   4348 C(5)       30.0636  120.8204    8.9107 C.ar      1 UNK         0.0000 
   4349 C(6)       30.0583  122.2080    8.9020 C.ar      1 UNK         0.0000 
   4350 C(7)       32.0314  125.2409    9.4070 C.2       1 UNK         0.0000 
   4351 C(8)       31.5906  126.6750    9.2860 C.3       1 UNK         0.0000 
   4352 H(1)       33.0628  122.7814   10.3744 H         1 UNK         0.0000 
   4353 H(2)       33.0801  120.3306   10.3903 H         1 UNK         0.0000 
   4354 H(3)       29.2205  120.2712    8.5104 H         1 UNK         0.0000 
   4355 H(4)       29.2077  122.7415    8.4961 H         1 UNK         0.0000 
   4356 H(5)       30.3505  118.3886    9.2841 H         1 UNK         0.0000 
   4357 H(6)       30.1147  124.6990    9.1910 H         1 UNK         0.0000 
   4358 H(7)       31.6688  127.1381   10.2352 H         1 UNK         0.0000 
   4359 H(8)       30.5938  126.7731    8.9420 H         1 UNK         0.0000 
   4360 H(9)       32.2710  127.1927    8.6612 H         1 UNK         0.0000 
   4361 O(1)       21.4039  130.9689   15.5017 O.3       1 UNK         0.0000 
   4362 O(2)       23.4017  132.2090    9.4577 O.2       1 UNK         0.0000 
   4363 N(1)       21.2205  132.2596   10.0886 N.am      1 UNK         0.0000 
   4364 C(1)       21.3200  131.9007   11.4515 C.ar      1 UNK         0.0000 
   4365 C(2)       22.4021  131.2148   12.0027 C.ar      1 UNK         0.0000 
   4366 C(3)       22.4092  130.9060   13.3599 C.ar      1 UNK         0.0000 
   4367 C(4)       21.3391  131.2687   14.1738 C.ar      1 UNK         0.0000 
   4368 C(5)       20.2435  131.9271   13.6167 C.ar      1 UNK         0.0000 
   4369 C(6)       20.2382  132.2399   12.2649 C.ar      1 UNK         0.0000 
   4370 C(7)       22.2113  132.4124    9.1951 C.2       1 UNK         0.0000 
   4371 C(8)       21.7704  132.8451    7.8224 C.3       1 UNK         0.0000 
   4372 H(1)       23.2427  130.9291   11.3824 H         1 UNK         0.0000 
   4373 H(2)       23.2600  130.3761   13.7701 H         1 UNK         0.0000 
   4374 H(3)       19.4004  132.1972   14.2404 H         1 UNK         0.0000 
   4375 H(4)       19.3876  132.7530   11.8334 H         1 UNK         0.0000 
   4376 H(5)       20.5304  131.0294   15.9075 H         1 UNK         0.0000 
   4377 H(6)       20.2946  132.5043    9.7711 H         1 UNK         0.0000 
   4378 H(7)       21.8487  132.0206    7.1624 H         1 UNK         0.0000 
   4379 H(8)       20.7737  133.2022    7.8021 H         1 UNK         0.0000 
   4380 H(9)       22.4509  133.5682    7.4544 H         1 UNK         0.0000 
   4381 O(1)       22.5366  127.6080   12.3169 O.3       1 UNK         0.0000 
   4382 O(2)       20.5388  121.4393   12.2011 O.2       1 UNK         0.0000 
   4383 N(1)       22.7199  122.0437   12.3888 N.am      1 UNK         0.0000 
   4384 C(1)       22.6205  123.4521   12.3376 C.ar      1 UNK         0.0000 
   4385 C(2)       21.5383  124.1403   11.7893 C.ar      1 UNK         0.0000 
   4386 C(3)       21.5313  125.5321   11.7858 C.ar      1 UNK         0.0000 
   4387 C(4)       22.6013  126.2467   12.3181 C.ar      1 UNK         0.0000 
   4388 C(5)       23.6969  125.5588   12.8383 C.ar      1 UNK         0.0000 
   4389 C(6)       23.7022  124.1713   12.8470 C.ar      1 UNK         0.0000 
   4390 C(7)       21.7291  121.1383   12.3420 C.2       1 UNK         0.0000 
   4391 C(8)       22.1700  119.7042   12.4630 C.3       1 UNK         0.0000 
   4392 H(1)       20.6978  123.5978   11.3746 H         1 UNK         0.0000 
   4393 H(2)       20.6805  126.0486   11.3587 H         1 UNK         0.0000 
   4394 H(3)       24.5401  126.1081   13.2386 H         1 UNK         0.0000 
   4395 H(4)       24.5528  123.6378   13.2530 H         1 UNK         0.0000 
   4396 H(5)       23.4100  127.9906   12.4649 H         1 UNK         0.0000 
   4397 H(6)       23.6459  121.6802   12.5580 H         1 UNK         0.0000 
   4398 H(7)       22.0917  119.2411   11.5138 H         1 UNK         0.0000 
   4399 H(8)       23.1668  119.6061   12.8070 H         1 UNK         0.0000 
   4400 H(9)       21.4895  119.1866   13.0878 H         1 UNK         0.0000 
   4401 O(1)       26.8705  135.8236   13.4097 O.3       1 UNK         0.0000 
   4402 O(2)       24.8727  134.5836   19.4537 O.2       1 UNK         0.0000 
   4403 N(1)       27.0538  134.5329   18.8228 N.am      1 UNK         0.0000 
   4404 C(1)       26.9543  134.8918   17.4599 C.ar      1 UNK         0.0000 
   4405 C(2)       25.8722  135.5777   16.9087 C.ar      1 UNK         0.0000 
   4406 C(3)       25.8652  135.8865   15.5516 C.ar      1 UNK         0.0000 
   4407 C(4)       26.9352  135.5238   14.7376 C.ar      1 UNK         0.0000 
   4408 C(5)       28.0308  134.8654   15.2947 C.ar      1 UNK         0.0000 
   4409 C(6)       28.0361  134.5526   16.6465 C.ar      1 UNK         0.0000 
   4410 C(7)       26.0630  134.3801   19.7163 C.2       1 UNK         0.0000 
   4411 C(8)       26.5039  133.9475   21.0890 C.3       1 UNK         0.0000 
   4412 H(1)       25.0317  135.8634   17.5290 H         1 UNK         0.0000 
   4413 H(2)       25.0143  136.4164   15.1413 H         1 UNK         0.0000 
   4414 H(3)       28.8740  134.5954   14.6710 H         1 UNK         0.0000 
   4415 H(4)       28.8867  134.0395   17.0780 H         1 UNK         0.0000 
   4416 H(5)       27.7439  135.7631   13.0039 H         1 UNK         0.0000 
   4417 H(6)       27.9798  134.2882   19.1403 H         1 UNK         0.0000 
   4418 H(7)       26.4256  134.7719   21.7490 H         1 UNK         0.0000 
   4419 H(8)       27.5007  133.5903   21.1093 H         1 UNK         0.0000 
   4420 H(9)       25.8234  133.2244   21.4570 H         1 UNK         0.0000 
   4421 O(1)       31.2240  124.5021   16.5945 O.3       1 UNK         0.0000 
   4422 O(2)       33.2218  130.6709   16.7103 O.2       1 UNK         0.0000 
   4423 N(1)       31.0406  130.0665   16.5226 N.am      1 UNK         0.0000 
   4424 C(1)       31.1401  128.6581   16.5738 C.ar      1 UNK         0.0000 
   4425 C(2)       32.2222  127.9699   17.1221 C.ar      1 UNK         0.0000 
   4426 C(3)       32.2293  126.5781   17.1257 C.ar      1 UNK         0.0000 
   4427 C(4)       31.1592  125.8635   16.5933 C.ar      1 UNK         0.0000 
   4428 C(5)       30.0636  126.5514   16.0731 C.ar      1 UNK         0.0000 
   4429 C(6)       30.0583  127.9389   16.0644 C.ar      1 UNK         0.0000 
   4430 C(7)       32.0314  130.9718   16.5694 C.2       1 UNK         0.0000 
   4431 C(8)       31.5906  132.4060   16.4484 C.3       1 UNK         0.0000 
   4432 H(1)       33.0628  128.5124   17.5368 H         1 UNK         0.0000 
   4433 H(2)       33.0801  126.0616   17.5527 H         1 UNK         0.0000 
   4434 H(3)       29.2205  126.0021   15.6728 H         1 UNK         0.0000 
   4435 H(4)       29.2077  128.4724   15.6585 H         1 UNK         0.0000 
   4436 H(5)       30.3505  124.1195   16.4465 H         1 UNK         0.0000 
   4437 H(6)       30.1147  130.4300   16.3534 H         1 UNK         0.0000 
   4438 H(7)       31.6688  132.8691   17.3976 H         1 UNK         0.0000 
   4439 H(8)       30.5938  132.5041   16.1044 H         1 UNK         0.0000 
   4440 H(9)       32.2710  132.9236   15.8236 H         1 UNK         0.0000 
   4441 O(1)       26.8901  122.0175   22.6641 O.3       1 UNK         0.0000 
   4442 O(2)       28.8879  123.2576   16.6201 O.2       1 UNK         0.0000 
   4443 N(1)       26.7067  123.3082   17.2510 N.am      1 UNK         0.0000 
   4444 C(1)       26.8062  122.9493   18.6139 C.ar      1 UNK         0.0000 
   4445 C(2)       27.8883  122.2634   19.1651 C.ar      1 UNK         0.0000 
   4446 C(3)       27.8954  121.9547   20.5223 C.ar      1 UNK         0.0000 
   4447 C(4)       26.8254  122.3173   21.3362 C.ar      1 UNK         0.0000 
   4448 C(5)       25.7297  122.9757   20.7791 C.ar      1 UNK         0.0000 
   4449 C(6)       25.7244  123.2886   19.4273 C.ar      1 UNK         0.0000 
   4450 C(7)       27.6975  123.4611   16.3575 C.2       1 UNK         0.0000 
   4451 C(8)       27.2567  123.8937   14.9848 C.3       1 UNK         0.0000 
   4452 H(1)       28.7289  121.9778   18.5448 H         1 UNK         0.0000 
   4453 H(2)       28.7462  121.4248   20.9325 H         1 UNK         0.0000 
   4454 H(3)       24.8866  123.2458   21.4028 H         1 UNK         0.0000 
   4455 H(4)       24.8738  123.8016   18.9958 H         1 UNK         0.0000 
   4456 H(5)       26.0166  122.0780   23.0699 H         1 UNK         0.0000 
   4457 H(6)       25.7808  123.5530   16.9335 H         1 UNK         0.0000 
   4458 H(7)       27.3349  123.0692   14.3248 H         1 UNK         0.0000 
   4459 H(8)       26.2599  124.2508   14.9645 H         1 UNK         0.0000 
   4460 H(9)       27.9371  124.6168   14.6168 H         1 UNK         0.0000 
   4461 O(1)       29.6136  133.3390   19.4793 O.3       1 UNK         0.0000 
   4462 O(2)       27.6158  127.1702   19.3635 O.2       1 UNK         0.0000 
   4463 N(1)       29.7969  127.7746   19.5512 N.am      1 UNK         0.0000 
   4464 C(1)       29.6975  129.1831   19.5000 C.ar      1 UNK         0.0000 
   4465 C(2)       28.6153  129.8713   18.9517 C.ar      1 UNK         0.0000 
   4466 C(3)       28.6083  131.2631   18.9482 C.ar      1 UNK         0.0000 
   4467 C(4)       29.6783  131.9777   19.4805 C.ar      1 UNK         0.0000 
   4468 C(5)       30.7739  131.2898   20.0007 C.ar      1 UNK         0.0000 
   4469 C(6)       30.7792  129.9022   20.0094 C.ar      1 UNK         0.0000 
   4470 C(7)       28.8061  126.8693   19.5044 C.2       1 UNK         0.0000 
   4471 C(8)       29.2470  125.4352   19.6254 C.3       1 UNK         0.0000 
   4472 H(1)       27.7748  129.3287   18.5370 H         1 UNK         0.0000 
   4473 H(2)       27.7575  131.7796   18.5211 H         1 UNK         0.0000 
   4474 H(3)       31.6171  131.8390   20.4010 H         1 UNK         0.0000 
   4475 H(4)       31.6298  129.3687   20.4154 H         1 UNK         0.0000 
   4476 H(5)       30.4870  133.7216   19.6273 H         1 UNK         0.0000 
   4477 H(6)       30.7229  127.4112   19.7204 H         1 UNK         0.0000 
   4478 H(7)       29.1687  124.9721   18.6762 H         1 UNK         0.0000 
   4479 H(8)       30.2438  125.3370   19.9694 H         1 UNK         0.0000 
   4480 H(9)       28.5665  124.9175   20.2502 H         1 UNK         0.0000 
   4481 O(1)       25.2797  126.8723   20.5721 O.3       1 UNK         0.0000 
   4482 O(2)       23.2819  125.6322   26.6161 O.2       1 UNK         0.0000 
   4483 N(1)       25.4630  125.5816   25.9852 N.am      1 UNK         0.0000 
   4484 C(1)       25.3636  125.9405   24.6223 C.ar      1 UNK         0.0000 
   4485 C(2)       24.2814  126.6264   24.0711 C.ar      1 UNK         0.0000 
   4486 C(3)       24.2744  126.9351   22.7140 C.ar      1 UNK         0.0000 
   4487 C(4)       25.3444  126.5725   21.9000 C.ar      1 UNK         0.0000 
   4488 C(5)       26.4400  125.9141   22.4571 C.ar      1 UNK         0.0000 
   4489 C(6)       26.4453  125.6012   23.8089 C.ar      1 UNK         0.0000 
   4490 C(7)       24.4722  125.4287   26.8787 C.2       1 UNK         0.0000 
   4491 C(8)       24.9131  124.9961   28.2514 C.3       1 UNK         0.0000 
   4492 H(1)       23.4409  126.9120   24.6914 H         1 UNK         0.0000 
   4493 H(2)       23.4236  127.4650   22.3037 H         1 UNK         0.0000 
   4494 H(3)       27.2832  125.6440   21.8334 H         1 UNK         0.0000 
   4495 H(4)       27.2959  125.0881   24.2404 H         1 UNK         0.0000 
   4496 H(5)       26.1531  126.8118   20.1663 H         1 UNK         0.0000 
   4497 H(6)       26.3890  125.3368   26.3027 H         1 UNK         0.0000 
   4498 H(7)       24.8348  125.8206   28.9114 H         1 UNK         0.0000 
   4499 H(8)       25.9099  124.6390   28.2717 H         1 UNK         0.0000 
   4500 H(9)       24.2326  124.2730   28.6194 H         1 UNK         0.0000 
   4501 O(1)       24.1470  130.2331   23.7569 O.3       1 UNK         0.0000 
   4502 O(2)       26.1448  136.4019   23.8727 O.2       1 UNK         0.0000 
   4503 N(1)       23.9636  135.7975   23.6850 N.am      1 UNK         0.0000 
   4504 C(1)       24.0631  134.3890   23.7362 C.ar      1 UNK         0.0000 
   4505 C(2)       25.1452  133.7008   24.2845 C.ar      1 UNK         0.0000 
   4506 C(3)       25.1523  132.3090   24.2881 C.ar      1 UNK         0.0000 
   4507 C(4)       24.0822  131.5944   23.7557 C.ar      1 UNK         0.0000 
   4508 C(5)       22.9866  132.2823   23.2355 C.ar      1 UNK         0.0000 
   4509 C(6)       22.9813  133.6699   23.2268 C.ar      1 UNK         0.0000 
   4510 C(7)       24.9544  136.7028   23.7318 C.2       1 UNK         0.0000 
   4511 C(8)       24.5136  138.1369   23.6108 C.3       1 UNK         0.0000 
   4512 H(1)       25.9858  134.2434   24.6992 H         1 UNK         0.0000 
   4513 H(2)       26.0031  131.7926   24.7151 H         1 UNK         0.0000 
   4514 H(3)       22.1435  131.7331   22.8352 H         1 UNK         0.0000 
   4515 H(4)       22.1307  134.2034   22.8209 H         1 UNK         0.0000 
   4516 H(5)       23.2735  129.8505   23.6089 H         1 UNK         0.0000 
   4517 H(6)       23.0377  136.1610   23.5158 H         1 UNK         0.0000 
   4518 H(7)       24.5918  138.6000   24.5600 H         1 UNK         0.0000 
   4519 H(8)       23.5168  138.2351   23.2668 H         1 UNK         0.0000 
   4520 H(9)       25.1940  138.6546   22.9860 H         1 UNK         0.0000 
   4521 O(1)       28.4809  125.2379    8.3393 O.3       1 UNK         0.0000 
   4522 O(2)       30.4787  126.4780    2.2953 O.2       1 UNK         0.0000 
   4523 N(1)       28.2975  126.5286    2.9262 N.am      1 UNK         0.0000 
   4524 C(1)       28.3970  126.1697    4.2891 C.ar      1 UNK         0.0000 
   4525 C(2)       29.4791  125.4838    4.8403 C.ar      1 UNK         0.0000 
   4526 C(3)       29.4862  125.1751    6.1975 C.ar      1 UNK         0.0000 
   4527 C(4)       28.4161  125.5377    7.0114 C.ar      1 UNK         0.0000 
   4528 C(5)       27.3205  126.1961    6.4543 C.ar      1 UNK         0.0000 
   4529 C(6)       27.3152  126.5090    5.1025 C.ar      1 UNK         0.0000 
   4530 C(7)       29.2883  126.6815    2.0327 C.2       1 UNK         0.0000 
   4531 C(8)       28.8474  127.1141    0.6600 C.3       1 UNK         0.0000 
   4532 H(1)       30.3197  125.1982    4.2200 H         1 UNK         0.0000 
   4533 H(2)       30.3370  124.6452    6.6077 H         1 UNK         0.0000 
   4534 H(3)       26.4774  126.4662    7.0780 H         1 UNK         0.0000 
   4535 H(4)       26.4646  127.0220    4.6710 H         1 UNK         0.0000 
   4536 H(5)       27.6074  125.2984    8.7451 H         1 UNK         0.0000 
   4537 H(6)       27.3716  126.7734    2.6087 H         1 UNK         0.0000 
   4538 H(7)       28.9257  126.2896    0.0000 H         1 UNK         0.0000 
   4539 H(8)       27.8507  127.4712    0.6397 H         1 UNK         0.0000 
   4540 H(9)       29.5279  127.8372    0.2920 H         1 UNK         0.0000 
   4541 O(1)       31.2044  136.5594    5.1545 O.3       1 UNK         0.0000 
   4542 O(2)       29.2065  130.3906    5.0387 O.2       1 UNK         0.0000 
   4543 N(1)       31.3877  130.9950    5.2264 N.am      1 UNK         0.0000 
   4544 C(1)       31.2882  132.4035    5.1752 C.ar      1 UNK         0.0000 
   4545 C(2)       30.2061  133.0917    4.6269 C.ar      1 UNK         0.0000 
   4546 C(3)       30.1990  134.4835    4.6234 C.ar      1 UNK         0.0000 
   4547 C(4)       31.2691  135.1981    5.1557 C.ar      1 UNK         0.0000 
   4548 C(5)       32.3647  134.5102    5.6759 C.ar      1 UNK         0.0000 
   4549 C(6)       32.3700  133.1226    5.6846 C.ar      1 UNK         0.0000 
   4550 C(7)       30.3969  130.0897    5.1796 C.2       1 UNK         0.0000 
   4551 C(8)       30.8378  128.6556    5.3006 C.3       1 UNK         0.0000 
   4552 H(1)       29.3655  132.5491    4.2122 H         1 UNK         0.0000 
   4553 H(2)       29.3482  135.0000    4.1963 H         1 UNK         0.0000 
   4554 H(3)       33.2078  135.0594    6.0762 H         1 UNK         0.0000 
   4555 H(4)       33.2206  132.5891    6.0906 H         1 UNK         0.0000 
   4556 H(5)       32.0778  136.9420    5.3025 H         1 UNK         0.0000 
   4557 H(6)       32.3137  130.6316    5.3956 H         1 UNK         0.0000 
   4558 H(7)       30.7595  128.1925    4.3514 H         1 UNK         0.0000 
   4559 H(8)       31.8345  128.5574    5.6446 H         1 UNK         0.0000 
   4560 H(9)       30.1573  128.1379    5.9254 H         1 UNK         0.0000 
   4561 O(1)       28.4613  144.7750    6.2473 O.3       1 UNK         0.0000 
   4562 O(2)       26.4634  143.5349   12.2913 O.2       1 UNK         0.0000 
   4563 N(1)       28.6446  143.4843   11.6604 N.am      1 UNK         0.0000 
   4564 C(1)       28.5451  143.8432   10.2975 C.ar      1 UNK         0.0000 
   4565 C(2)       27.4630  144.5291    9.7463 C.ar      1 UNK         0.0000 
   4566 C(3)       27.4559  144.8378    8.3892 C.ar      1 UNK         0.0000 
   4567 C(4)       28.5260  144.4752    7.5752 C.ar      1 UNK         0.0000 
   4568 C(5)       29.6216  143.8168    8.1323 C.ar      1 UNK         0.0000 
   4569 C(6)       29.6269  143.5039    9.4841 C.ar      1 UNK         0.0000 
   4570 C(7)       27.6538  143.3315   12.5539 C.2       1 UNK         0.0000 
   4571 C(8)       28.0947  142.8988   13.9266 C.3       1 UNK         0.0000 
   4572 H(1)       26.6224  144.8147   10.3666 H         1 UNK         0.0000 
   4573 H(2)       26.6051  145.3678    7.9789 H         1 UNK         0.0000 
   4574 H(3)       30.4647  143.5467    7.5086 H         1 UNK         0.0000 
   4575 H(4)       30.4775  142.9909    9.9156 H         1 UNK         0.0000 
   4576 H(5)       29.3347  144.7145    5.8415 H         1 UNK         0.0000 
   4577 H(6)       29.5705  143.2395   11.9779 H         1 UNK         0.0000 
   4578 H(7)       28.0164  143.7233   14.5866 H         1 UNK         0.0000 
   4579 H(8)       29.0914  142.5417   13.9469 H         1 UNK         0.0000 
   4580 H(9)       27.4142  142.1757   14.2946 H         1 UNK         0.0000 
   4581 O(1)       32.8147  133.4535    9.4321 O.3       1 UNK         0.0000 
   4582 O(2)       34.8126  139.6223    9.5479 O.2       1 UNK         0.0000 
   4583 N(1)       32.6314  139.0179    9.3602 N.am      1 UNK         0.0000 
   4584 C(1)       32.7309  137.6094    9.4114 C.ar      1 UNK         0.0000 
   4585 C(2)       33.8130  136.9212    9.9597 C.ar      1 UNK         0.0000 
   4586 C(3)       33.8201  135.5294    9.9633 C.ar      1 UNK         0.0000 
   4587 C(4)       32.7500  134.8148    9.4309 C.ar      1 UNK         0.0000 
   4588 C(5)       31.6544  135.5027    8.9107 C.ar      1 UNK         0.0000 
   4589 C(6)       31.6491  136.8903    8.9020 C.ar      1 UNK         0.0000 
   4590 C(7)       33.6222  139.9232    9.4070 C.2       1 UNK         0.0000 
   4591 C(8)       33.1813  141.3573    9.2860 C.3       1 UNK         0.0000 
   4592 H(1)       34.6536  137.4638   10.3744 H         1 UNK         0.0000 
   4593 H(2)       34.6709  135.0130   10.3903 H         1 UNK         0.0000 
   4594 H(3)       30.8113  134.9535    8.5104 H         1 UNK         0.0000 
   4595 H(4)       30.7985  137.4238    8.4961 H         1 UNK         0.0000 
   4596 H(5)       31.9413  133.0709    9.2841 H         1 UNK         0.0000 
   4597 H(6)       31.7054  139.3814    9.1910 H         1 UNK         0.0000 
   4598 H(7)       33.2596  141.8204   10.2352 H         1 UNK         0.0000 
   4599 H(8)       32.1846  141.4555    8.9420 H         1 UNK         0.0000 
   4600 H(9)       33.8618  141.8750    8.6612 H         1 UNK         0.0000 
   4601 O(1)       22.9946  145.6512   15.5017 O.3       1 UNK         0.0000 
   4602 O(2)       24.9925  146.8913    9.4577 O.2       1 UNK         0.0000 
   4603 N(1)       22.8113  146.9419   10.0886 N.am      1 UNK         0.0000 
   4604 C(1)       22.9108  146.5830   11.4515 C.ar      1 UNK         0.0000 
   4605 C(2)       23.9929  145.8971   12.0027 C.ar      1 UNK         0.0000 
   4606 C(3)       23.9999  145.5884   13.3599 C.ar      1 UNK         0.0000 
   4607 C(4)       22.9299  145.9510   14.1738 C.ar      1 UNK         0.0000 
   4608 C(5)       21.8343  146.6094   13.6167 C.ar      1 UNK         0.0000 
   4609 C(6)       21.8290  146.9223   12.2649 C.ar      1 UNK         0.0000 
   4610 C(7)       23.8021  147.0948    9.1951 C.2       1 UNK         0.0000 
   4611 C(8)       23.3612  147.5274    7.8224 C.3       1 UNK         0.0000 
   4612 H(1)       24.8335  145.6115   11.3824 H         1 UNK         0.0000 
   4613 H(2)       24.8508  145.0585   13.7701 H         1 UNK         0.0000 
   4614 H(3)       20.9911  146.8795   14.2404 H         1 UNK         0.0000 
   4615 H(4)       20.9784  147.4353   11.8334 H         1 UNK         0.0000 
   4616 H(5)       22.1212  145.7117   15.9075 H         1 UNK         0.0000 
   4617 H(6)       21.8853  147.1867    9.7711 H         1 UNK         0.0000 
   4618 H(7)       23.4395  146.7029    7.1624 H         1 UNK         0.0000 
   4619 H(8)       22.3644  147.8845    7.8021 H         1 UNK         0.0000 
   4620 H(9)       24.0417  148.2505    7.4544 H         1 UNK         0.0000 
   4621 O(1)       24.1274  142.2904   12.3169 O.3       1 UNK         0.0000 
   4622 O(2)       22.1295  136.1216   12.2011 O.2       1 UNK         0.0000 
   4623 N(1)       24.3107  136.7260   12.3888 N.am      1 UNK         0.0000 
   4624 C(1)       24.2112  138.1344   12.3376 C.ar      1 UNK         0.0000 
   4625 C(2)       23.1291  138.8226   11.7893 C.ar      1 UNK         0.0000 
   4626 C(3)       23.1220  140.2145   11.7858 C.ar      1 UNK         0.0000 
   4627 C(4)       24.1921  140.9291   12.3181 C.ar      1 UNK         0.0000 
   4628 C(5)       25.2877  140.2411   12.8383 C.ar      1 UNK         0.0000 
   4629 C(6)       25.2930  138.8536   12.8470 C.ar      1 UNK         0.0000 
   4630 C(7)       23.3199  135.8207   12.3420 C.2       1 UNK         0.0000 
   4631 C(8)       23.7608  134.3866   12.4630 C.3       1 UNK         0.0000 
   4632 H(1)       22.2885  138.2801   11.3746 H         1 UNK         0.0000 
   4633 H(2)       22.2712  140.7309   11.3587 H         1 UNK         0.0000 
   4634 H(3)       26.1308  140.7904   13.2386 H         1 UNK         0.0000 
   4635 H(4)       26.1436  138.3201   13.2530 H         1 UNK         0.0000 
   4636 H(5)       25.0008  142.6730   12.4649 H         1 UNK         0.0000 
   4637 H(6)       25.2367  136.3625   12.5580 H         1 UNK         0.0000 
   4638 H(7)       23.6825  133.9235   11.5138 H         1 UNK         0.0000 
   4639 H(8)       24.7575  134.2884   12.8070 H         1 UNK         0.0000 
   4640 H(9)       23.0803  133.8689   13.0878 H         1 UNK         0.0000 
   4641 O(1)       28.4613  150.5060   13.4097 O.3       1 UNK         0.0000 
   4642 O(2)       26.4634  149.2659   19.4537 O.2       1 UNK         0.0000 
   4643 N(1)       28.6446  149.2153   18.8228 N.am      1 UNK         0.0000 
   4644 C(1)       28.5451  149.5742   17.4599 C.ar      1 UNK         0.0000 
   4645 C(2)       27.4630  150.2601   16.9087 C.ar      1 UNK         0.0000 
   4646 C(3)       27.4559  150.5688   15.5516 C.ar      1 UNK         0.0000 
   4647 C(4)       28.5260  150.2062   14.7376 C.ar      1 UNK         0.0000 
   4648 C(5)       29.6216  149.5478   15.2947 C.ar      1 UNK         0.0000 
   4649 C(6)       29.6269  149.2349   16.6465 C.ar      1 UNK         0.0000 
   4650 C(7)       27.6538  149.0624   19.7163 C.2       1 UNK         0.0000 
   4651 C(8)       28.0947  148.6298   21.0890 C.3       1 UNK         0.0000 
   4652 H(1)       26.6224  150.5457   17.5290 H         1 UNK         0.0000 
   4653 H(2)       26.6051  151.0987   15.1413 H         1 UNK         0.0000 
   4654 H(3)       30.4647  149.2777   14.6710 H         1 UNK         0.0000 
   4655 H(4)       30.4775  148.7218   17.0780 H         1 UNK         0.0000 
   4656 H(5)       29.3347  150.4455   13.0039 H         1 UNK         0.0000 
   4657 H(6)       29.5705  148.9705   19.1403 H         1 UNK         0.0000 
   4658 H(7)       28.0164  149.4542   21.7490 H         1 UNK         0.0000 
   4659 H(8)       29.0914  148.2727   21.1093 H         1 UNK         0.0000 
   4660 H(9)       27.4142  147.9067   21.4570 H         1 UNK         0.0000 
   4661 O(1)       32.8147  139.1845   16.5945 O.3       1 UNK         0.0000 
   4662 O(2)       34.8126  145.3533   16.7103 O.2       1 UNK         0.0000 
   4663 N(1)       32.6314  144.7489   16.5226 N.am      1 UNK         0.0000 
   4664 C(1)       32.7309  143.3404   16.5738 C.ar      1 UNK         0.0000 
   4665 C(2)       33.8130  142.6522   17.1221 C.ar      1 UNK         0.0000 
   4666 C(3)       33.8201  141.2604   17.1257 C.ar      1 UNK         0.0000 
   4667 C(4)       32.7500  140.5458   16.5933 C.ar      1 UNK         0.0000 
   4668 C(5)       31.6544  141.2337   16.0731 C.ar      1 UNK         0.0000 
   4669 C(6)       31.6491  142.6212   16.0644 C.ar      1 UNK         0.0000 
   4670 C(7)       33.6222  145.6542   16.5694 C.2       1 UNK         0.0000 
   4671 C(8)       33.1813  147.0883   16.4484 C.3       1 UNK         0.0000 
   4672 H(1)       34.6536  143.1947   17.5368 H         1 UNK         0.0000 
   4673 H(2)       34.6709  140.7439   17.5527 H         1 UNK         0.0000 
   4674 H(3)       30.8113  140.6845   15.6728 H         1 UNK         0.0000 
   4675 H(4)       30.7985  143.1548   15.6585 H         1 UNK         0.0000 
   4676 H(5)       31.9413  138.8019   16.4465 H         1 UNK         0.0000 
   4677 H(6)       31.7054  145.1123   16.3534 H         1 UNK         0.0000 
   4678 H(7)       33.2596  147.5514   17.3976 H         1 UNK         0.0000 
   4679 H(8)       32.1846  147.1864   16.1044 H         1 UNK         0.0000 
   4680 H(9)       33.8618  147.6060   15.8236 H         1 UNK         0.0000 
   4681 O(1)       28.4809  136.6998   22.6641 O.3       1 UNK         0.0000 
   4682 O(2)       30.4787  137.9399   16.6201 O.2       1 UNK         0.0000 
   4683 N(1)       28.2975  137.9906   17.2510 N.am      1 UNK         0.0000 
   4684 C(1)       28.3970  137.6316   18.6139 C.ar      1 UNK         0.0000 
   4685 C(2)       29.4791  136.9458   19.1651 C.ar      1 UNK         0.0000 
   4686 C(3)       29.4862  136.6370   20.5223 C.ar      1 UNK         0.0000 
   4687 C(4)       28.4161  136.9997   21.3362 C.ar      1 UNK         0.0000 
   4688 C(5)       27.3205  137.6580   20.7791 C.ar      1 UNK         0.0000 
   4689 C(6)       27.3152  137.9709   19.4273 C.ar      1 UNK         0.0000 
   4690 C(7)       29.2883  138.1434   16.3575 C.2       1 UNK         0.0000 
   4691 C(8)       28.8474  138.5760   14.9848 C.3       1 UNK         0.0000 
   4692 H(1)       30.3197  136.6601   18.5448 H         1 UNK         0.0000 
   4693 H(2)       30.3370  136.1071   20.9325 H         1 UNK         0.0000 
   4694 H(3)       26.4774  137.9281   21.4028 H         1 UNK         0.0000 
   4695 H(4)       26.4646  138.4840   18.9958 H         1 UNK         0.0000 
   4696 H(5)       27.6074  136.7604   23.0699 H         1 UNK         0.0000 
   4697 H(6)       27.3716  138.2353   16.9335 H         1 UNK         0.0000 
   4698 H(7)       28.9257  137.7516   14.3248 H         1 UNK         0.0000 
   4699 H(8)       27.8507  138.9332   14.9645 H         1 UNK         0.0000 
   4700 H(9)       29.5279  139.2991   14.6168 H         1 UNK         0.0000 
   4701 O(1)       31.2044  148.0213   19.4793 O.3       1 UNK         0.0000 
   4702 O(2)       29.2065  141.8526   19.3635 O.2       1 UNK         0.0000 
   4703 N(1)       31.3877  142.4570   19.5512 N.am      1 UNK         0.0000 
   4704 C(1)       31.2882  143.8654   19.5000 C.ar      1 UNK         0.0000 
   4705 C(2)       30.2061  144.5536   18.9517 C.ar      1 UNK         0.0000 
   4706 C(3)       30.1990  145.9454   18.9482 C.ar      1 UNK         0.0000 
   4707 C(4)       31.2691  146.6600   19.4805 C.ar      1 UNK         0.0000 
   4708 C(5)       32.3647  145.9721   20.0007 C.ar      1 UNK         0.0000 
   4709 C(6)       32.3700  144.5846   20.0094 C.ar      1 UNK         0.0000 
   4710 C(7)       30.3969  141.5516   19.5044 C.2       1 UNK         0.0000 
   4711 C(8)       30.8378  140.1175   19.6254 C.3       1 UNK         0.0000 
   4712 H(1)       29.3655  144.0111   18.5370 H         1 UNK         0.0000 
   4713 H(2)       29.3482  146.4619   18.5211 H         1 UNK         0.0000 
   4714 H(3)       33.2078  146.5214   20.4010 H         1 UNK         0.0000 
   4715 H(4)       33.2206  144.0510   20.4154 H         1 UNK         0.0000 
   4716 H(5)       32.0778  148.4039   19.6273 H         1 UNK         0.0000 
   4717 H(6)       32.3137  142.0935   19.7204 H         1 UNK         0.0000 
   4718 H(7)       30.7595  139.6544   18.6762 H         1 UNK         0.0000 
   4719 H(8)       31.8345  140.0194   19.9694 H         1 UNK         0.0000 
   4720 H(9)       30.1573  139.5998   20.2502 H         1 UNK         0.0000 
   4721 O(1)       26.8705  141.5546   20.5721 O.3       1 UNK         0.0000 
   4722 O(2)       24.8727  140.3145   26.6161 O.2       1 UNK         0.0000 
   4723 N(1)       27.0538  140.2639   25.9852 N.am      1 UNK         0.0000 
   4724 C(1)       26.9543  140.6228   24.6223 C.ar      1 UNK         0.0000 
   4725 C(2)       25.8722  141.3087   24.0711 C.ar      1 UNK         0.0000 
   4726 C(3)       25.8652  141.6174   22.7140 C.ar      1 UNK         0.0000 
   4727 C(4)       26.9352  141.2548   21.9000 C.ar      1 UNK         0.0000 
   4728 C(5)       28.0308  140.5964   22.4571 C.ar      1 UNK         0.0000 
   4729 C(6)       28.0361  140.2835   23.8089 C.ar      1 UNK         0.0000 
   4730 C(7)       26.0630  140.1111   26.8787 C.2       1 UNK         0.0000 
   4731 C(8)       26.5039  139.6784   28.2514 C.3       1 UNK         0.0000 
   4732 H(1)       25.0317  141.5943   24.6914 H         1 UNK         0.0000 
   4733 H(2)       25.0143  142.1474   22.3037 H         1 UNK         0.0000 
   4734 H(3)       28.8740  140.3263   21.8334 H         1 UNK         0.0000 
   4735 H(4)       28.8867  139.7705   24.2404 H         1 UNK         0.0000 
   4736 H(5)       27.7439  141.4941   20.1663 H         1 UNK         0.0000 
   4737 H(6)       27.9798  140.0191   26.3027 H         1 UNK         0.0000 
   4738 H(7)       26.4256  140.5029   28.9114 H         1 UNK         0.0000 
   4739 H(8)       27.5007  139.3213   28.2717 H         1 UNK         0.0000 
   4740 H(9)       25.8234  138.9553   28.6194 H         1 UNK         0.0000 
   4741 O(1)       25.7377  144.9154   23.7569 O.3       1 UNK         0.0000 
   4742 O(2)       27.7356  151.0842   23.8727 O.2       1 UNK         0.0000 
   4743 N(1)       25.5544  150.4798   23.6850 N.am      1 UNK         0.0000 
   4744 C(1)       25.6539  149.0714   23.7362 C.ar      1 UNK         0.0000 
   4745 C(2)       26.7360  148.3832   24.2845 C.ar      1 UNK         0.0000 
   4746 C(3)       26.7431  146.9914   24.2881 C.ar      1 UNK         0.0000 
   4747 C(4)       25.6730  146.2767   23.7557 C.ar      1 UNK         0.0000 
   4748 C(5)       24.5774  146.9647   23.2355 C.ar      1 UNK         0.0000 
   4749 C(6)       24.5721  148.3522   23.2268 C.ar      1 UNK         0.0000 
   4750 C(7)       26.5452  151.3851   23.7318 C.2       1 UNK         0.0000 
   4751 C(8)       26.1043  152.8193   23.6108 C.3       1 UNK         0.0000 
   4752 H(1)       27.5766  148.9257   24.6992 H         1 UNK         0.0000 
   4753 H(2)       27.5939  146.4749   24.7151 H         1 UNK         0.0000 
   4754 H(3)       23.7343  146.4154   22.8352 H         1 UNK         0.0000 
   4755 H(4)       23.7215  148.8857   22.8209 H         1 UNK         0.0000 
   4756 H(5)       24.8643  144.5328   23.6089 H         1 UNK         0.0000 
   4757 H(6)       24.6284  150.8433   23.5158 H         1 UNK         0.0000 
   4758 H(7)       26.1826  153.2824   24.5600 H         1 UNK         0.0000 
   4759 H(8)       25.1076  152.9174   23.2668 H         1 UNK         0.0000 
   4760 H(9)       26.7848  153.3369   22.9860 H         1 UNK         0.0000 
   4761 O(1)       30.0716  139.9202    8.3393 O.3       1 UNK         0.0000 
   4762 O(2)       32.0695  141.1603    2.2953 O.2       1 UNK         0.0000 
   4763 N(1)       29.8883  141.2110    2.9262 N.am      1 UNK         0.0000 
   4764 C(1)       29.9878  140.8520    4.2891 C.ar      1 UNK         0.0000 
   4765 C(2)       31.0699  140.1662    4.8403 C.ar      1 UNK         0.0000 
   4766 C(3)       31.0770  139.8574    6.1975 C.ar      1 UNK         0.0000 
   4767 C(4)       30.0069  140.2201    7.0114 C.ar      1 UNK         0.0000 
   4768 C(5)       28.9113  140.8784    6.4543 C.ar      1 UNK         0.0000 
   4769 C(6)       28.9060  141.1913    5.1025 C.ar      1 UNK         0.0000 
   4770 C(7)       30.8791  141.3638    2.0327 C.2       1 UNK         0.0000 
   4771 C(8)       30.4382  141.7964    0.6600 C.3       1 UNK         0.0000 
   4772 H(1)       31.9105  139.8805    4.2200 H         1 UNK         0.0000 
   4773 H(2)       31.9278  139.3275    6.6077 H         1 UNK         0.0000 
   4774 H(3)       28.0681  141.1485    7.0780 H         1 UNK         0.0000 
   4775 H(4)       28.0554  141.7044    4.6710 H         1 UNK         0.0000 
   4776 H(5)       29.1982  139.9808    8.7451 H         1 UNK         0.0000 
   4777 H(6)       28.9623  141.4557    2.6087 H         1 UNK         0.0000 
   4778 H(7)       30.5165  140.9720    0.0000 H         1 UNK         0.0000 
   4779 H(8)       29.4414  142.1536    0.6397 H         1 UNK         0.0000 
   4780 H(9)       31.1187  142.5195    0.2920 H         1 UNK         0.0000 
   4781 O(1)       32.7951  151.2417    5.1545 O.3       1 UNK         0.0000 
   4782 O(2)       30.7973  145.0729    5.0387 O.2       1 UNK         0.0000 
   4783 N(1)       32.9785  145.6774    5.2264 N.am      1 UNK         0.0000 
   4784 C(1)       32.8790  147.0858    5.1752 C.ar      1 UNK         0.0000 
   4785 C(2)       31.7969  147.7740    4.6269 C.ar      1 UNK         0.0000 
   4786 C(3)       31.7898  149.1658    4.6234 C.ar      1 UNK         0.0000 
   4787 C(4)       32.8599  149.8804    5.1557 C.ar      1 UNK         0.0000 
   4788 C(5)       33.9555  149.1925    5.6759 C.ar      1 UNK         0.0000 
   4789 C(6)       33.9608  147.8050    5.6846 C.ar      1 UNK         0.0000 
   4790 C(7)       31.9877  144.7720    5.1796 C.2       1 UNK         0.0000 
   4791 C(8)       32.4286  143.3379    5.3006 C.3       1 UNK         0.0000 
   4792 H(1)       30.9563  147.2315    4.2122 H         1 UNK         0.0000 
   4793 H(2)       30.9390  149.6823    4.1963 H         1 UNK         0.0000 
   4794 H(3)       34.7986  149.7418    6.0762 H         1 UNK         0.0000 
   4795 H(4)       34.8114  147.2714    6.0906 H         1 UNK         0.0000 
   4796 H(5)       33.6686  151.6243    5.3025 H         1 UNK         0.0000 
   4797 H(6)       33.9044  145.3139    5.3956 H         1 UNK         0.0000 
   4798 H(7)       32.3503  142.8748    4.3514 H         1 UNK         0.0000 
   4799 H(8)       33.4253  143.2398    5.6446 H         1 UNK         0.0000 
   4800 H(9)       31.7481  142.8202    5.9254 H         1 UNK         0.0000 
   4801 O(1)       21.2212   12.6340    6.2473 O.3       1 UNK         0.0000 
   4802 O(2)       19.2234   11.3940   12.2913 O.2       1 UNK         0.0000 
   4803 N(1)       21.4045   11.3433   11.6604 N.am      1 UNK         0.0000 
   4804 C(1)       21.3051   11.7022   10.2975 C.ar      1 UNK         0.0000 
   4805 C(2)       20.2229   12.3881    9.7463 C.ar      1 UNK         0.0000 
   4806 C(3)       20.2159   12.6969    8.3892 C.ar      1 UNK         0.0000 
   4807 C(4)       21.2859   12.3342    7.5752 C.ar      1 UNK         0.0000 
   4808 C(5)       22.3815   11.6758    8.1323 C.ar      1 UNK         0.0000 
   4809 C(6)       22.3868   11.3630    9.4841 C.ar      1 UNK         0.0000 
   4810 C(7)       20.4138   11.1905   12.5539 C.2       1 UNK         0.0000 
   4811 C(8)       20.8546   10.7579   13.9266 C.3       1 UNK         0.0000 
   4812 H(1)       19.3824   12.6738   10.3666 H         1 UNK         0.0000 
   4813 H(2)       19.3651   13.2268    7.9789 H         1 UNK         0.0000 
   4814 H(3)       23.2247   11.4057    7.5086 H         1 UNK         0.0000 
   4815 H(4)       23.2374   10.8499    9.9156 H         1 UNK         0.0000 
   4816 H(5)       22.0946   12.5735    5.8415 H         1 UNK         0.0000 
   4817 H(6)       22.3305   11.0986   11.9779 H         1 UNK         0.0000 
   4818 H(7)       20.7763   11.5823   14.5866 H         1 UNK         0.0000 
   4819 H(8)       21.8514   10.4007   13.9469 H         1 UNK         0.0000 
   4820 H(9)       20.1741   10.0347   14.2946 H         1 UNK         0.0000 
   4821 O(1)       25.5747    1.3125    9.4321 O.3       1 UNK         0.0000 
   4822 O(2)       27.5725    7.4813    9.5479 O.2       1 UNK         0.0000 
   4823 N(1)       25.3914    6.8769    9.3602 N.am      1 UNK         0.0000 
   4824 C(1)       25.4908    5.4685    9.4114 C.ar      1 UNK         0.0000 
   4825 C(2)       26.5730    4.7803    9.9597 C.ar      1 UNK         0.0000 
   4826 C(3)       26.5800    3.3885    9.9633 C.ar      1 UNK         0.0000 
   4827 C(4)       25.5100    2.6738    9.4309 C.ar      1 UNK         0.0000 
   4828 C(5)       24.4144    3.3618    8.9107 C.ar      1 UNK         0.0000 
   4829 C(6)       24.4091    4.7493    8.9020 C.ar      1 UNK         0.0000 
   4830 C(7)       26.3821    7.7822    9.4070 C.2       1 UNK         0.0000 
   4831 C(8)       25.9413    9.2163    9.2860 C.3       1 UNK         0.0000 
   4832 H(1)       27.4135    5.3228   10.3744 H         1 UNK         0.0000 
   4833 H(2)       27.4308    2.8720   10.3903 H         1 UNK         0.0000 
   4834 H(3)       23.5712    2.8125    8.5104 H         1 UNK         0.0000 
   4835 H(4)       23.5584    5.2828    8.4961 H         1 UNK         0.0000 
   4836 H(5)       24.7013    0.9299    9.2841 H         1 UNK         0.0000 
   4837 H(6)       24.4654    7.2404    9.1910 H         1 UNK         0.0000 
   4838 H(7)       26.0195    9.6795   10.2352 H         1 UNK         0.0000 
   4839 H(8)       24.9445    9.3145    8.9420 H         1 UNK         0.0000 
   4840 H(9)       26.6218    9.7340    8.6612 H         1 UNK         0.0000 
   4841 O(1)       15.7546   13.5102   15.5017 O.3       1 UNK         0.0000 
   4842 O(2)       17.7524   14.7503    9.4577 O.2       1 UNK         0.0000 
   4843 N(1)       15.5713   14.8009   10.0886 N.am      1 UNK         0.0000 
   4844 C(1)       15.6707   14.4420   11.4515 C.ar      1 UNK         0.0000 
   4845 C(2)       16.7529   13.7561   12.0027 C.ar      1 UNK         0.0000 
   4846 C(3)       16.7599   13.4474   13.3599 C.ar      1 UNK         0.0000 
   4847 C(4)       15.6899   13.8100   14.1738 C.ar      1 UNK         0.0000 
   4848 C(5)       14.5943   14.4684   13.6167 C.ar      1 UNK         0.0000 
   4849 C(6)       14.5890   14.7813   12.2649 C.ar      1 UNK         0.0000 
   4850 C(7)       16.5620   14.9538    9.1951 C.2       1 UNK         0.0000 
   4851 C(8)       16.1212   15.3864    7.8224 C.3       1 UNK         0.0000 
   4852 H(1)       17.5934   13.4705   11.3824 H         1 UNK         0.0000 
   4853 H(2)       17.6107   12.9175   13.7701 H         1 UNK         0.0000 
   4854 H(3)       13.7511   14.7385   14.2404 H         1 UNK         0.0000 
   4855 H(4)       13.7383   15.2944   11.8334 H         1 UNK         0.0000 
   4856 H(5)       14.8811   13.5707   15.9075 H         1 UNK         0.0000 
   4857 H(6)       14.6453   15.0457    9.7711 H         1 UNK         0.0000 
   4858 H(7)       16.1994   14.5620    7.1624 H         1 UNK         0.0000 
   4859 H(8)       15.1244   15.7436    7.8021 H         1 UNK         0.0000 
   4860 H(9)       16.8017   16.1095    7.4544 H         1 UNK         0.0000 
   4861 O(1)       16.8873   10.1494   12.3169 O.3       1 UNK         0.0000 
   4862 O(2)       14.8895    3.9806   12.2011 O.2       1 UNK         0.0000 
   4863 N(1)       17.0706    4.5850   12.3888 N.am      1 UNK         0.0000 
   4864 C(1)       16.9712    5.9935   12.3376 C.ar      1 UNK         0.0000 
   4865 C(2)       15.8890    6.6817   11.7893 C.ar      1 UNK         0.0000 
   4866 C(3)       15.8820    8.0735   11.7858 C.ar      1 UNK         0.0000 
   4867 C(4)       16.9520    8.7881   12.3181 C.ar      1 UNK         0.0000 
   4868 C(5)       18.0476    8.1002   12.8383 C.ar      1 UNK         0.0000 
   4869 C(6)       18.0529    6.7126   12.8470 C.ar      1 UNK         0.0000 
   4870 C(7)       16.0799    3.6797   12.3420 C.2       1 UNK         0.0000 
   4871 C(8)       16.5207    2.2456   12.4630 C.3       1 UNK         0.0000 
   4872 H(1)       15.0485    6.1391   11.3746 H         1 UNK         0.0000 
   4873 H(2)       15.0312    8.5900   11.3587 H         1 UNK         0.0000 
   4874 H(3)       18.8908    8.6494   13.2386 H         1 UNK         0.0000 
   4875 H(4)       18.9036    6.1791   13.2530 H         1 UNK         0.0000 
   4876 H(5)       17.7607   10.5320   12.4649 H         1 UNK         0.0000 
   4877 H(6)       17.9966    4.2215   12.5580 H         1 UNK         0.0000 
   4878 H(7)       16.4425    1.7825   11.5138 H         1 UNK         0.0000 
   4879 H(8)       17.5175    2.1474   12.8070 H         1 UNK         0.0000 
   4880 H(9)       15.8402    1.7279   13.0878 H         1 UNK         0.0000 
   4881 O(1)       21.2212   18.3650   13.4097 O.3       1 UNK         0.0000 
   4882 O(2)       19.2234   17.1249   19.4537 O.2       1 UNK         0.0000 
   4883 N(1)       21.4045   17.0743   18.8228 N.am      1 UNK         0.0000 
   4884 C(1)       21.3051   17.4332   17.4599 C.ar      1 UNK         0.0000 
   4885 C(2)       20.2229   18.1191   16.9087 C.ar      1 UNK         0.0000 
   4886 C(3)       20.2159   18.4278   15.5516 C.ar      1 UNK         0.0000 
   4887 C(4)       21.2859   18.0652   14.7376 C.ar      1 UNK         0.0000 
   4888 C(5)       22.3815   17.4068   15.2947 C.ar      1 UNK         0.0000 
   4889 C(6)       22.3868   17.0939   16.6465 C.ar      1 UNK         0.0000 
   4890 C(7)       20.4138   16.9215   19.7163 C.2       1 UNK         0.0000 
   4891 C(8)       20.8546   16.4888   21.0890 C.3       1 UNK         0.0000 
   4892 H(1)       19.3824   18.4047   17.5290 H         1 UNK         0.0000 
   4893 H(2)       19.3651   18.9577   15.1413 H         1 UNK         0.0000 
   4894 H(3)       23.2247   17.1367   14.6710 H         1 UNK         0.0000 
   4895 H(4)       23.2374   16.5809   17.0780 H         1 UNK         0.0000 
   4896 H(5)       22.0946   18.3045   13.0039 H         1 UNK         0.0000 
   4897 H(6)       22.3305   16.8295   19.1403 H         1 UNK         0.0000 
   4898 H(7)       20.7763   17.3133   21.7490 H         1 UNK         0.0000 
   4899 H(8)       21.8514   16.1317   21.1093 H         1 UNK         0.0000 
   4900 H(9)       20.1741   15.7657   21.4570 H         1 UNK         0.0000 
   4901 O(1)       25.5747    7.0435   16.5945 O.3       1 UNK         0.0000 
   4902 O(2)       27.5725   13.2123   16.7103 O.2       1 UNK         0.0000 
   4903 N(1)       25.3914   12.6079   16.5226 N.am      1 UNK         0.0000 
   4904 C(1)       25.4908   11.1994   16.5738 C.ar      1 UNK         0.0000 
   4905 C(2)       26.5730   10.5112   17.1221 C.ar      1 UNK         0.0000 
   4906 C(3)       26.5800    9.1194   17.1257 C.ar      1 UNK         0.0000 
   4907 C(4)       25.5100    8.4048   16.5933 C.ar      1 UNK         0.0000 
   4908 C(5)       24.4144    9.0927   16.0731 C.ar      1 UNK         0.0000 
   4909 C(6)       24.4091   10.4803   16.0644 C.ar      1 UNK         0.0000 
   4910 C(7)       26.3821   13.5132   16.5694 C.2       1 UNK         0.0000 
   4911 C(8)       25.9413   14.9473   16.4484 C.3       1 UNK         0.0000 
   4912 H(1)       27.4135   11.0538   17.5368 H         1 UNK         0.0000 
   4913 H(2)       27.4308    8.6029   17.5527 H         1 UNK         0.0000 
   4914 H(3)       23.5712    8.5435   15.6728 H         1 UNK         0.0000 
   4915 H(4)       23.5584   11.0138   15.6585 H         1 UNK         0.0000 
   4916 H(5)       24.7013    6.6609   16.4465 H         1 UNK         0.0000 
   4917 H(6)       24.4654   12.9713   16.3534 H         1 UNK         0.0000 
   4918 H(7)       26.0195   15.4104   17.3976 H         1 UNK         0.0000 
   4919 H(8)       24.9445   15.0455   16.1044 H         1 UNK         0.0000 
   4920 H(9)       26.6218   15.4650   15.8236 H         1 UNK         0.0000 
   4921 O(1)       21.2408    4.5589   22.6641 O.3       1 UNK         0.0000 
   4922 O(2)       23.2386    5.7989   16.6201 O.2       1 UNK         0.0000 
   4923 N(1)       21.0575    5.8496   17.2510 N.am      1 UNK         0.0000 
   4924 C(1)       21.1569    5.4907   18.6139 C.ar      1 UNK         0.0000 
   4925 C(2)       22.2391    4.8048   19.1651 C.ar      1 UNK         0.0000 
   4926 C(3)       22.2461    4.4960   20.5223 C.ar      1 UNK         0.0000 
   4927 C(4)       21.1761    4.8587   21.3362 C.ar      1 UNK         0.0000 
   4928 C(5)       20.0805    5.5171   20.7791 C.ar      1 UNK         0.0000 
   4929 C(6)       20.0752    5.8299   19.4273 C.ar      1 UNK         0.0000 
   4930 C(7)       22.0482    6.0024   16.3575 C.2       1 UNK         0.0000 
   4931 C(8)       21.6074    6.4350   14.9848 C.3       1 UNK         0.0000 
   4932 H(1)       23.0796    4.5191   18.5448 H         1 UNK         0.0000 
   4933 H(2)       23.0969    3.9661   20.9325 H         1 UNK         0.0000 
   4934 H(3)       19.2373    5.7872   21.4028 H         1 UNK         0.0000 
   4935 H(4)       19.2246    6.3430   18.9958 H         1 UNK         0.0000 
   4936 H(5)       20.3674    4.6194   23.0699 H         1 UNK         0.0000 
   4937 H(6)       20.1315    6.0943   16.9335 H         1 UNK         0.0000 
   4938 H(7)       21.6857    5.6106   14.3248 H         1 UNK         0.0000 
   4939 H(8)       20.6106    6.7922   14.9645 H         1 UNK         0.0000 
   4940 H(9)       22.2879    7.1582   14.6168 H         1 UNK         0.0000 
   4941 O(1)       23.9643   15.8804   19.4793 O.3       1 UNK         0.0000 
   4942 O(2)       21.9665    9.7116   19.3635 O.2       1 UNK         0.0000 
   4943 N(1)       24.1476   10.3160   19.5512 N.am      1 UNK         0.0000 
   4944 C(1)       24.0482   11.7244   19.5000 C.ar      1 UNK         0.0000 
   4945 C(2)       22.9660   12.4126   18.9517 C.ar      1 UNK         0.0000 
   4946 C(3)       22.9590   13.8044   18.9482 C.ar      1 UNK         0.0000 
   4947 C(4)       24.0290   14.5191   19.4805 C.ar      1 UNK         0.0000 
   4948 C(5)       25.1246   13.8311   20.0007 C.ar      1 UNK         0.0000 
   4949 C(6)       25.1299   12.4436   20.0094 C.ar      1 UNK         0.0000 
   4950 C(7)       23.1569    9.4107   19.5044 C.2       1 UNK         0.0000 
   4951 C(8)       23.5977    7.9766   19.6254 C.3       1 UNK         0.0000 
   4952 H(1)       22.1255   11.8701   18.5370 H         1 UNK         0.0000 
   4953 H(2)       22.1082   14.3209   18.5211 H         1 UNK         0.0000 
   4954 H(3)       25.9678   14.3804   20.4010 H         1 UNK         0.0000 
   4955 H(4)       25.9806   11.9101   20.4154 H         1 UNK         0.0000 
   4956 H(5)       24.8377   16.2630   19.6273 H         1 UNK         0.0000 
   4957 H(6)       25.0736    9.9525   19.7204 H         1 UNK         0.0000 
   4958 H(7)       23.5195    7.5134   18.6762 H         1 UNK         0.0000 
   4959 H(8)       24.5945    7.8784   19.9694 H         1 UNK         0.0000 
   4960 H(9)       22.9172    7.4589   20.2502 H         1 UNK         0.0000 
   4961 O(1)       19.6304    9.4136   20.5721 O.3       1 UNK         0.0000 
   4962 O(2)       17.6326    8.1736   26.6161 O.2       1 UNK         0.0000 
   4963 N(1)       19.8137    8.1229   25.9852 N.am      1 UNK         0.0000 
   4964 C(1)       19.7143    8.4818   24.6223 C.ar      1 UNK         0.0000 
   4965 C(2)       18.6321    9.1677   24.0711 C.ar      1 UNK         0.0000 
   4966 C(3)       18.6251    9.4765   22.7140 C.ar      1 UNK         0.0000 
   4967 C(4)       19.6951    9.1138   21.9000 C.ar      1 UNK         0.0000 
   4968 C(5)       20.7907    8.4554   22.4571 C.ar      1 UNK         0.0000 
   4969 C(6)       20.7960    8.1426   23.8089 C.ar      1 UNK         0.0000 
   4970 C(7)       18.8230    7.9701   26.8787 C.2       1 UNK         0.0000 
   4971 C(8)       19.2638    7.5375   28.2514 C.3       1 UNK         0.0000 
   4972 H(1)       17.7916    9.4534   24.6914 H         1 UNK         0.0000 
   4973 H(2)       17.7743   10.0064   22.3037 H         1 UNK         0.0000 
   4974 H(3)       21.6339    8.1853   21.8334 H         1 UNK         0.0000 
   4975 H(4)       21.6467    7.6295   24.2404 H         1 UNK         0.0000 
   4976 H(5)       20.5039    9.3531   20.1663 H         1 UNK         0.0000 
   4977 H(6)       20.7397    7.8782   26.3027 H         1 UNK         0.0000 
   4978 H(7)       19.1856    8.3619   28.9114 H         1 UNK         0.0000 
   4979 H(8)       20.2606    7.1803   28.2717 H         1 UNK         0.0000 
   4980 H(9)       18.5833    6.8143   28.6194 H         1 UNK         0.0000 
   4981 O(1)       18.4977   12.7745   23.7569 O.3       1 UNK         0.0000 
   4982 O(2)       20.4955   18.9433   23.8727 O.2       1 UNK         0.0000 
   4983 N(1)       18.3144   18.3389   23.6850 N.am      1 UNK         0.0000 
   4984 C(1)       18.4138   16.9304   23.7362 C.ar      1 UNK         0.0000 
   4985 C(2)       19.4960   16.2422   24.2845 C.ar      1 UNK         0.0000 
   4986 C(3)       19.5030   14.8504   24.2881 C.ar      1 UNK         0.0000 
   4987 C(4)       18.4330   14.1358   23.7557 C.ar      1 UNK         0.0000 
   4988 C(5)       17.3374   14.8237   23.2355 C.ar      1 UNK         0.0000 
   4989 C(6)       17.3321   16.2112   23.2268 C.ar      1 UNK         0.0000 
   4990 C(7)       19.3051   19.2442   23.7318 C.2       1 UNK         0.0000 
   4991 C(8)       18.8643   20.6783   23.6108 C.3       1 UNK         0.0000 
   4992 H(1)       20.3365   16.7847   24.6992 H         1 UNK         0.0000 
   4993 H(2)       20.3538   14.3339   24.7151 H         1 UNK         0.0000 
   4994 H(3)       16.4942   14.2744   22.8352 H         1 UNK         0.0000 
   4995 H(4)       16.4814   16.7448   22.8209 H         1 UNK         0.0000 
   4996 H(5)       17.6243   12.3919   23.6089 H         1 UNK         0.0000 
   4997 H(6)       17.3884   18.7023   23.5158 H         1 UNK         0.0000 
   4998 H(7)       18.9425   21.1414   24.5600 H         1 UNK         0.0000 
   4999 H(8)       17.8675   20.7764   23.2668 H         1 UNK         0.0000 
   5000 H(9)       19.5448   21.1960   22.9860 H         1 UNK         0.0000 
   5001 O(1)       22.8316    7.7793    8.3393 O.3       1 UNK         0.0000 
   5002 O(2)       24.8294    9.0193    2.2953 O.2       1 UNK         0.0000 
   5003 N(1)       22.6483    9.0700    2.9262 N.am      1 UNK         0.0000 
   5004 C(1)       22.7477    8.7111    4.2891 C.ar      1 UNK         0.0000 
   5005 C(2)       23.8299    8.0252    4.8403 C.ar      1 UNK         0.0000 
   5006 C(3)       23.8369    7.7164    6.1975 C.ar      1 UNK         0.0000 
   5007 C(4)       22.7669    8.0791    7.0114 C.ar      1 UNK         0.0000 
   5008 C(5)       21.6713    8.7375    6.4543 C.ar      1 UNK         0.0000 
   5009 C(6)       21.6660    9.0503    5.1025 C.ar      1 UNK         0.0000 
   5010 C(7)       23.6390    9.2228    2.0327 C.2       1 UNK         0.0000 
   5011 C(8)       23.1982    9.6554    0.6600 C.3       1 UNK         0.0000 
   5012 H(1)       24.6704    7.7395    4.2200 H         1 UNK         0.0000 
   5013 H(2)       24.6877    7.1865    6.6077 H         1 UNK         0.0000 
   5014 H(3)       20.8281    9.0076    7.0780 H         1 UNK         0.0000 
   5015 H(4)       20.8153    9.5634    4.6710 H         1 UNK         0.0000 
   5016 H(5)       21.9581    7.8398    8.7451 H         1 UNK         0.0000 
   5017 H(6)       21.7223    9.3147    2.6087 H         1 UNK         0.0000 
   5018 H(7)       23.2764    8.8310    0.0000 H         1 UNK         0.0000 
   5019 H(8)       22.2014   10.0126    0.6397 H         1 UNK         0.0000 
   5020 H(9)       23.8787   10.3786    0.2920 H         1 UNK         0.0000 
   5021 O(1)       25.5551   19.1008    5.1545 O.3       1 UNK         0.0000 
   5022 O(2)       23.5573   12.9320    5.0387 O.2       1 UNK         0.0000 
   5023 N(1)       25.7384   13.5364    5.2264 N.am      1 UNK         0.0000 
   5024 C(1)       25.6390   14.9448    5.1752 C.ar      1 UNK         0.0000 
   5025 C(2)       24.5568   15.6330    4.6269 C.ar      1 UNK         0.0000 
   5026 C(3)       24.5498   17.0248    4.6234 C.ar      1 UNK         0.0000 
   5027 C(4)       25.6198   17.7395    5.1557 C.ar      1 UNK         0.0000 
   5028 C(5)       26.7154   17.0515    5.6759 C.ar      1 UNK         0.0000 
   5029 C(6)       26.7207   15.6640    5.6846 C.ar      1 UNK         0.0000 
   5030 C(7)       24.7476   12.6311    5.1796 C.2       1 UNK         0.0000 
   5031 C(8)       25.1885   11.1969    5.3006 C.3       1 UNK         0.0000 
   5032 H(1)       23.7163   15.0905    4.2122 H         1 UNK         0.0000 
   5033 H(2)       23.6990   17.5413    4.1963 H         1 UNK         0.0000 
   5034 H(3)       27.5586   17.6008    6.0762 H         1 UNK         0.0000 
   5035 H(4)       27.5713   15.1305    6.0906 H         1 UNK         0.0000 
   5036 H(5)       26.4285   19.4834    5.3025 H         1 UNK         0.0000 
   5037 H(6)       26.6644   13.1729    5.3956 H         1 UNK         0.0000 
   5038 H(7)       25.1102   10.7338    4.3514 H         1 UNK         0.0000 
   5039 H(8)       26.1853   11.0988    5.6446 H         1 UNK         0.0000 
   5040 H(9)       24.5080   10.6793    5.9254 H         1 UNK         0.0000 
   5041 O(1)       22.8120   27.3164    6.2473 O.3       1 UNK         0.0000 
   5042 O(2)       20.8142   26.0763   12.2913 O.2       1 UNK         0.0000 
   5043 N(1)       22.9953   26.0256   11.6604 N.am      1 UNK         0.0000 
   5044 C(1)       22.8959   26.3846   10.2975 C.ar      1 UNK         0.0000 
   5045 C(2)       21.8137   27.0704    9.7463 C.ar      1 UNK         0.0000 
   5046 C(3)       21.8067   27.3792    8.3892 C.ar      1 UNK         0.0000 
   5047 C(4)       22.8767   27.0165    7.5752 C.ar      1 UNK         0.0000 
   5048 C(5)       23.9723   26.3582    8.1323 C.ar      1 UNK         0.0000 
   5049 C(6)       23.9776   26.0453    9.4841 C.ar      1 UNK         0.0000 
   5050 C(7)       22.0045   25.8728   12.5539 C.2       1 UNK         0.0000 
   5051 C(8)       22.4454   25.4402   13.9266 C.3       1 UNK         0.0000 
   5052 H(1)       20.9732   27.3561   10.3666 H         1 UNK         0.0000 
   5053 H(2)       20.9559   27.9091    7.9789 H         1 UNK         0.0000 
   5054 H(3)       24.8155   26.0881    7.5086 H         1 UNK         0.0000 
   5055 H(4)       24.8282   25.5322    9.9156 H         1 UNK         0.0000 
   5056 H(5)       23.6854   27.2558    5.8415 H         1 UNK         0.0000 
   5057 H(6)       23.9213   25.7809   11.9779 H         1 UNK         0.0000 
   5058 H(7)       22.3671   26.2646   14.5866 H         1 UNK         0.0000 
   5059 H(8)       23.4422   25.0830   13.9469 H         1 UNK         0.0000 
   5060 H(9)       21.7649   24.7171   14.2946 H         1 UNK         0.0000 
   5061 O(1)       27.1655   15.9949    9.4321 O.3       1 UNK         0.0000 
   5062 O(2)       29.1633   22.1637    9.5479 O.2       1 UNK         0.0000 
   5063 N(1)       26.9821   21.5592    9.3602 N.am      1 UNK         0.0000 
   5064 C(1)       27.0816   20.1508    9.4114 C.ar      1 UNK         0.0000 
   5065 C(2)       28.1638   19.4626    9.9597 C.ar      1 UNK         0.0000 
   5066 C(3)       28.1708   18.0708    9.9633 C.ar      1 UNK         0.0000 
   5067 C(4)       27.1008   17.3562    9.4309 C.ar      1 UNK         0.0000 
   5068 C(5)       26.0052   18.0441    8.9107 C.ar      1 UNK         0.0000 
   5069 C(6)       25.9998   19.4316    8.9020 C.ar      1 UNK         0.0000 
   5070 C(7)       27.9729   22.4646    9.4070 C.2       1 UNK         0.0000 
   5071 C(8)       27.5321   23.8987    9.2860 C.3       1 UNK         0.0000 
   5072 H(1)       29.0043   20.0051   10.3744 H         1 UNK         0.0000 
   5073 H(2)       29.0216   17.5543   10.3903 H         1 UNK         0.0000 
   5074 H(3)       25.1620   17.4948    8.5104 H         1 UNK         0.0000 
   5075 H(4)       25.1492   19.9652    8.4961 H         1 UNK         0.0000 
   5076 H(5)       26.2920   15.6123    9.2841 H         1 UNK         0.0000 
   5077 H(6)       26.0562   21.9227    9.1910 H         1 UNK         0.0000 
   5078 H(7)       27.6103   24.3618   10.2352 H         1 UNK         0.0000 
   5079 H(8)       26.5353   23.9968    8.9420 H         1 UNK         0.0000 
   5080 H(9)       28.2125   24.4164    8.6612 H         1 UNK         0.0000 
   5081 O(1)       17.3454   28.1926   15.5017 O.3       1 UNK         0.0000 
   5082 O(2)       19.3432   29.4326    9.4577 O.2       1 UNK         0.0000 
   5083 N(1)       17.1620   29.4833   10.0886 N.am      1 UNK         0.0000 
   5084 C(1)       17.2615   29.1244   11.4515 C.ar      1 UNK         0.0000 
   5085 C(2)       18.3436   28.4385   12.0027 C.ar      1 UNK         0.0000 
   5086 C(3)       18.3507   28.1297   13.3599 C.ar      1 UNK         0.0000 
   5087 C(4)       17.2807   28.4924   14.1738 C.ar      1 UNK         0.0000 
   5088 C(5)       16.1850   29.1508   13.6167 C.ar      1 UNK         0.0000 
   5089 C(6)       16.1797   29.4636   12.2649 C.ar      1 UNK         0.0000 
   5090 C(7)       18.1528   29.6361    9.1951 C.2       1 UNK         0.0000 
   5091 C(8)       17.7120   30.0687    7.8224 C.3       1 UNK         0.0000 
   5092 H(1)       19.1842   28.1528   11.3824 H         1 UNK         0.0000 
   5093 H(2)       19.2015   27.5998   13.7701 H         1 UNK         0.0000 
   5094 H(3)       15.3419   29.4209   14.2404 H         1 UNK         0.0000 
   5095 H(4)       15.3291   29.9767   11.8334 H         1 UNK         0.0000 
   5096 H(5)       16.4719   28.2531   15.9075 H         1 UNK         0.0000 
   5097 H(6)       16.2361   29.7280    9.7711 H         1 UNK         0.0000 
   5098 H(7)       17.7902   29.2443    7.1624 H         1 UNK         0.0000 
   5099 H(8)       16.7152   30.4259    7.8021 H         1 UNK         0.0000 
   5100 H(9)       18.3924   30.7919    7.4544 H         1 UNK         0.0000 
   5101 O(1)       18.4781   24.8317   12.3169 O.3       1 UNK         0.0000 
   5102 O(2)       16.4803   18.6629   12.2011 O.2       1 UNK         0.0000 
   5103 N(1)       18.6614   19.2673   12.3888 N.am      1 UNK         0.0000 
   5104 C(1)       18.5620   20.6758   12.3376 C.ar      1 UNK         0.0000 
   5105 C(2)       17.4798   21.3640   11.7893 C.ar      1 UNK         0.0000 
   5106 C(3)       17.4728   22.7558   11.7858 C.ar      1 UNK         0.0000 
   5107 C(4)       18.5428   23.4704   12.3181 C.ar      1 UNK         0.0000 
   5108 C(5)       19.6384   22.7825   12.8383 C.ar      1 UNK         0.0000 
   5109 C(6)       19.6437   21.3950   12.8470 C.ar      1 UNK         0.0000 
   5110 C(7)       17.6706   18.3620   12.3420 C.2       1 UNK         0.0000 
   5111 C(8)       18.1115   16.9279   12.4630 C.3       1 UNK         0.0000 
   5112 H(1)       16.6393   20.8215   11.3746 H         1 UNK         0.0000 
   5113 H(2)       16.6220   23.2723   11.3587 H         1 UNK         0.0000 
   5114 H(3)       20.4816   23.3317   13.2386 H         1 UNK         0.0000 
   5115 H(4)       20.4943   20.8614   13.2530 H         1 UNK         0.0000 
   5116 H(5)       19.3515   25.2143   12.4649 H         1 UNK         0.0000 
   5117 H(6)       19.5874   18.9039   12.5580 H         1 UNK         0.0000 
   5118 H(7)       18.0332   16.4648   11.5138 H         1 UNK         0.0000 
   5119 H(8)       19.1083   16.8298   12.8070 H         1 UNK         0.0000 
   5120 H(9)       17.4310   16.4102   13.0878 H         1 UNK         0.0000 
   5121 O(1)       22.8120   33.0473   13.4097 O.3       1 UNK         0.0000 
   5122 O(2)       20.8142   31.8072   19.4537 O.2       1 UNK         0.0000 
   5123 N(1)       22.9953   31.7566   18.8228 N.am      1 UNK         0.0000 
   5124 C(1)       22.8959   32.1155   17.4599 C.ar      1 UNK         0.0000 
   5125 C(2)       21.8137   32.8014   16.9087 C.ar      1 UNK         0.0000 
   5126 C(3)       21.8067   33.1102   15.5516 C.ar      1 UNK         0.0000 
   5127 C(4)       22.8767   32.7475   14.7376 C.ar      1 UNK         0.0000 
   5128 C(5)       23.9723   32.0891   15.2947 C.ar      1 UNK         0.0000 
   5129 C(6)       23.9776   31.7763   16.6465 C.ar      1 UNK         0.0000 
   5130 C(7)       22.0045   31.6038   19.7163 C.2       1 UNK         0.0000 
   5131 C(8)       22.4454   31.1711   21.0890 C.3       1 UNK         0.0000 
   5132 H(1)       20.9732   33.0871   17.5290 H         1 UNK         0.0000 
   5133 H(2)       20.9559   33.6401   15.1413 H         1 UNK         0.0000 
   5134 H(3)       24.8155   31.8190   14.6710 H         1 UNK         0.0000 
   5135 H(4)       24.8282   31.2632   17.0780 H         1 UNK         0.0000 
   5136 H(5)       23.6854   32.9868   13.0039 H         1 UNK         0.0000 
   5137 H(6)       23.9213   31.5119   19.1403 H         1 UNK         0.0000 
   5138 H(7)       22.3671   31.9956   21.7490 H         1 UNK         0.0000 
   5139 H(8)       23.4422   30.8140   21.1093 H         1 UNK         0.0000 
   5140 H(9)       21.7649   30.4480   21.4570 H         1 UNK         0.0000 
   5141 O(1)       27.1655   21.7258   16.5945 O.3       1 UNK         0.0000 
   5142 O(2)       29.1633   27.8946   16.7103 O.2       1 UNK         0.0000 
   5143 N(1)       26.9821   27.2902   16.5226 N.am      1 UNK         0.0000 
   5144 C(1)       27.0816   25.8818   16.5738 C.ar      1 UNK         0.0000 
   5145 C(2)       28.1638   25.1936   17.1221 C.ar      1 UNK         0.0000 
   5146 C(3)       28.1708   23.8017   17.1257 C.ar      1 UNK         0.0000 
   5147 C(4)       27.1008   23.0871   16.5933 C.ar      1 UNK         0.0000 
   5148 C(5)       26.0052   23.7751   16.0731 C.ar      1 UNK         0.0000 
   5149 C(6)       25.9998   25.1626   16.0644 C.ar      1 UNK         0.0000 
   5150 C(7)       27.9729   28.1955   16.5694 C.2       1 UNK         0.0000 
   5151 C(8)       27.5321   29.6296   16.4484 C.3       1 UNK         0.0000 
   5152 H(1)       29.0043   25.7361   17.5368 H         1 UNK         0.0000 
   5153 H(2)       29.0216   23.2853   17.5527 H         1 UNK         0.0000 
   5154 H(3)       25.1620   23.2258   15.6728 H         1 UNK         0.0000 
   5155 H(4)       25.1492   25.6961   15.6585 H         1 UNK         0.0000 
   5156 H(5)       26.2920   21.3432   16.4465 H         1 UNK         0.0000 
   5157 H(6)       26.0562   27.6537   16.3534 H         1 UNK         0.0000 
   5158 H(7)       27.6103   30.0928   17.3976 H         1 UNK         0.0000 
   5159 H(8)       26.5353   29.7278   16.1044 H         1 UNK         0.0000 
   5160 H(9)       28.2125   30.1473   15.8236 H         1 UNK         0.0000 
   5161 O(1)       22.8316   19.2412   22.6641 O.3       1 UNK         0.0000 
   5162 O(2)       24.8294   20.4813   16.6201 O.2       1 UNK         0.0000 
   5163 N(1)       22.6483   20.5319   17.2510 N.am      1 UNK         0.0000 
   5164 C(1)       22.7477   20.1730   18.6139 C.ar      1 UNK         0.0000 
   5165 C(2)       23.8299   19.4871   19.1651 C.ar      1 UNK         0.0000 
   5166 C(3)       23.8369   19.1784   20.5223 C.ar      1 UNK         0.0000 
   5167 C(4)       22.7669   19.5410   21.3362 C.ar      1 UNK         0.0000 
   5168 C(5)       21.6713   20.1994   20.7791 C.ar      1 UNK         0.0000 
   5169 C(6)       21.6660   20.5123   19.4273 C.ar      1 UNK         0.0000 
   5170 C(7)       23.6390   20.6847   16.3575 C.2       1 UNK         0.0000 
   5171 C(8)       23.1982   21.1174   14.9848 C.3       1 UNK         0.0000 
   5172 H(1)       24.6704   19.2015   18.5448 H         1 UNK         0.0000 
   5173 H(2)       24.6877   18.6484   20.9325 H         1 UNK         0.0000 
   5174 H(3)       20.8281   20.4695   21.4028 H         1 UNK         0.0000 
   5175 H(4)       20.8153   21.0253   18.9958 H         1 UNK         0.0000 
   5176 H(5)       21.9581   19.3017   23.0699 H         1 UNK         0.0000 
   5177 H(6)       21.7223   20.7767   16.9335 H         1 UNK         0.0000 
   5178 H(7)       23.2764   20.2929   14.3248 H         1 UNK         0.0000 
   5179 H(8)       22.2014   21.4745   14.9645 H         1 UNK         0.0000 
   5180 H(9)       23.8787   21.8405   14.6168 H         1 UNK         0.0000 
   5181 O(1)       25.5551   30.5627   19.4793 O.3       1 UNK         0.0000 
   5182 O(2)       23.5573   24.3939   19.3635 O.2       1 UNK         0.0000 
   5183 N(1)       25.7384   24.9983   19.5512 N.am      1 UNK         0.0000 
   5184 C(1)       25.6390   26.4068   19.5000 C.ar      1 UNK         0.0000 
   5185 C(2)       24.5568   27.0950   18.9517 C.ar      1 UNK         0.0000 
   5186 C(3)       24.5498   28.4868   18.9482 C.ar      1 UNK         0.0000 
   5187 C(4)       25.6198   29.2014   19.4805 C.ar      1 UNK         0.0000 
   5188 C(5)       26.7154   28.5135   20.0007 C.ar      1 UNK         0.0000 
   5189 C(6)       26.7207   27.1259   20.0094 C.ar      1 UNK         0.0000 
   5190 C(7)       24.7476   24.0930   19.5044 C.2       1 UNK         0.0000 
   5191 C(8)       25.1885   22.6589   19.6254 C.3       1 UNK         0.0000 
   5192 H(1)       23.7163   26.5524   18.5370 H         1 UNK         0.0000 
   5193 H(2)       23.6990   29.0033   18.5211 H         1 UNK         0.0000 
   5194 H(3)       27.5586   29.0627   20.4010 H         1 UNK         0.0000 
   5195 H(4)       27.5713   26.5924   20.4154 H         1 UNK         0.0000 
   5196 H(5)       26.4285   30.9453   19.6273 H         1 UNK         0.0000 
   5197 H(6)       26.6644   24.6348   19.7204 H         1 UNK         0.0000 
   5198 H(7)       25.1102   22.1958   18.6762 H         1 UNK         0.0000 
   5199 H(8)       26.1853   22.5607   19.9694 H         1 UNK         0.0000 
   5200 H(9)       24.5080   22.1412   20.2502 H         1 UNK         0.0000 
   5201 O(1)       21.2212   24.0960   20.5721 O.3       1 UNK         0.0000 
   5202 O(2)       19.2234   22.8559   26.6161 O.2       1 UNK         0.0000 
   5203 N(1)       21.4045   22.8052   25.9852 N.am      1 UNK         0.0000 
   5204 C(1)       21.3051   23.1642   24.6223 C.ar      1 UNK         0.0000 
   5205 C(2)       20.2229   23.8500   24.0711 C.ar      1 UNK         0.0000 
   5206 C(3)       20.2159   24.1588   22.7140 C.ar      1 UNK         0.0000 
   5207 C(4)       21.2859   23.7962   21.9000 C.ar      1 UNK         0.0000 
   5208 C(5)       22.3815   23.1378   22.4571 C.ar      1 UNK         0.0000 
   5209 C(6)       22.3868   22.8249   23.8089 C.ar      1 UNK         0.0000 
   5210 C(7)       20.4138   22.6524   26.8787 C.2       1 UNK         0.0000 
   5211 C(8)       20.8546   22.2198   28.2514 C.3       1 UNK         0.0000 
   5212 H(1)       19.3824   24.1357   24.6914 H         1 UNK         0.0000 
   5213 H(2)       19.3651   24.6887   22.3037 H         1 UNK         0.0000 
   5214 H(3)       23.2247   22.8677   21.8334 H         1 UNK         0.0000 
   5215 H(4)       23.2374   22.3118   24.2404 H         1 UNK         0.0000 
   5216 H(5)       22.0946   24.0354   20.1663 H         1 UNK         0.0000 
   5217 H(6)       22.3305   22.5605   26.3027 H         1 UNK         0.0000 
   5218 H(7)       20.7763   23.0442   28.9114 H         1 UNK         0.0000 
   5219 H(8)       21.8514   21.8626   28.2717 H         1 UNK         0.0000 
   5220 H(9)       20.1741   21.4967   28.6194 H         1 UNK         0.0000 
   5221 O(1)       20.0885   27.4568   23.7569 O.3       1 UNK         0.0000 
   5222 O(2)       22.0863   33.6256   23.8727 O.2       1 UNK         0.0000 
   5223 N(1)       19.9051   33.0212   23.6850 N.am      1 UNK         0.0000 
   5224 C(1)       20.0046   31.6127   23.7362 C.ar      1 UNK         0.0000 
   5225 C(2)       21.0868   30.9245   24.2845 C.ar      1 UNK         0.0000 
   5226 C(3)       21.0938   29.5327   24.2881 C.ar      1 UNK         0.0000 
   5227 C(4)       20.0238   28.8181   23.7557 C.ar      1 UNK         0.0000 
   5228 C(5)       18.9282   29.5060   23.2355 C.ar      1 UNK         0.0000 
   5229 C(6)       18.9228   30.8936   23.2268 C.ar      1 UNK         0.0000 
   5230 C(7)       20.8959   33.9265   23.7318 C.2       1 UNK         0.0000 
   5231 C(8)       20.4551   35.3606   23.6108 C.3       1 UNK         0.0000 
   5232 H(1)       21.9273   31.4671   24.6992 H         1 UNK         0.0000 
   5233 H(2)       21.9446   29.0162   24.7151 H         1 UNK         0.0000 
   5234 H(3)       18.0850   28.9568   22.8352 H         1 UNK         0.0000 
   5235 H(4)       18.0722   31.4271   22.8209 H         1 UNK         0.0000 
   5236 H(5)       19.2150   27.0742   23.6089 H         1 UNK         0.0000 
   5237 H(6)       18.9792   33.3846   23.5158 H         1 UNK         0.0000 
   5238 H(7)       20.5333   35.8237   24.5600 H         1 UNK         0.0000 
   5239 H(8)       19.4583   35.4588   23.2668 H         1 UNK         0.0000 
   5240 H(9)       21.1355   35.8783   22.9860 H         1 UNK         0.0000 
   5241 O(1)       24.4224   22.4616    8.3393 O.3       1 UNK         0.0000 
   5242 O(2)       26.4202   23.7017    2.2953 O.2       1 UNK         0.0000 
   5243 N(1)       24.2390   23.7523    2.9262 N.am      1 UNK         0.0000 
   5244 C(1)       24.3385   23.3934    4.2891 C.ar      1 UNK         0.0000 
   5245 C(2)       25.4206   22.7075    4.8403 C.ar      1 UNK         0.0000 
   5246 C(3)       25.4277   22.3988    6.1975 C.ar      1 UNK         0.0000 
   5247 C(4)       24.3577   22.7614    7.0114 C.ar      1 UNK         0.0000 
   5248 C(5)       23.2620   23.4198    6.4543 C.ar      1 UNK         0.0000 
   5249 C(6)       23.2567   23.7327    5.1025 C.ar      1 UNK         0.0000 
   5250 C(7)       25.2298   23.9051    2.0327 C.2       1 UNK         0.0000 
   5251 C(8)       24.7890   24.3378    0.6600 C.3       1 UNK         0.0000 
   5252 H(1)       26.2612   22.4219    4.2200 H         1 UNK         0.0000 
   5253 H(2)       26.2785   21.8688    6.6077 H         1 UNK         0.0000 
   5254 H(3)       22.4189   23.6899    7.0780 H         1 UNK         0.0000 
   5255 H(4)       22.4061   24.2457    4.6710 H         1 UNK         0.0000 
   5256 H(5)       23.5489   22.5221    8.7451 H         1 UNK         0.0000 
   5257 H(6)       23.3131   23.9971    2.6087 H         1 UNK         0.0000 
   5258 H(7)       24.8672   23.5133    0.0000 H         1 UNK         0.0000 
   5259 H(8)       23.7922   24.6949    0.6397 H         1 UNK         0.0000 
   5260 H(9)       25.4694   25.0609    0.2920 H         1 UNK         0.0000 
   5261 O(1)       27.1459   33.7831    5.1545 O.3       1 UNK         0.0000 
   5262 O(2)       25.1481   27.6143    5.0387 O.2       1 UNK         0.0000 
   5263 N(1)       27.3292   28.2187    5.2264 N.am      1 UNK         0.0000 
   5264 C(1)       27.2297   29.6272    5.1752 C.ar      1 UNK         0.0000 
   5265 C(2)       26.1476   30.3154    4.6269 C.ar      1 UNK         0.0000 
   5266 C(3)       26.1406   31.7072    4.6234 C.ar      1 UNK         0.0000 
   5267 C(4)       27.2106   32.4218    5.1557 C.ar      1 UNK         0.0000 
   5268 C(5)       28.3062   31.7339    5.6759 C.ar      1 UNK         0.0000 
   5269 C(6)       28.3115   30.3463    5.6846 C.ar      1 UNK         0.0000 
   5270 C(7)       26.3384   27.3134    5.1796 C.2       1 UNK         0.0000 
   5271 C(8)       26.7793   25.8793    5.3006 C.3       1 UNK         0.0000 
   5272 H(1)       25.3071   29.7728    4.2122 H         1 UNK         0.0000 
   5273 H(2)       25.2898   32.2236    4.1963 H         1 UNK         0.0000 
   5274 H(3)       29.1494   32.2831    6.0762 H         1 UNK         0.0000 
   5275 H(4)       29.1621   29.8128    6.0906 H         1 UNK         0.0000 
   5276 H(5)       28.0193   34.1657    5.3025 H         1 UNK         0.0000 
   5277 H(6)       28.2552   27.8552    5.3956 H         1 UNK         0.0000 
   5278 H(7)       26.7010   25.4162    4.3514 H         1 UNK         0.0000 
   5279 H(8)       27.7761   25.7811    5.6446 H         1 UNK         0.0000 
   5280 H(9)       26.0988   25.3616    5.9254 H         1 UNK         0.0000 
   5281 O(1)       24.4028   41.9987    6.2473 O.3       1 UNK         0.0000 
   5282 O(2)       22.4050   40.7586   12.2913 O.2       1 UNK         0.0000 
   5283 N(1)       24.5861   40.7080   11.6604 N.am      1 UNK         0.0000 
   5284 C(1)       24.4866   41.0669   10.2975 C.ar      1 UNK         0.0000 
   5285 C(2)       23.4045   41.7528    9.7463 C.ar      1 UNK         0.0000 
   5286 C(3)       23.3975   42.0615    8.3892 C.ar      1 UNK         0.0000 
   5287 C(4)       24.4675   41.6989    7.5752 C.ar      1 UNK         0.0000 
   5288 C(5)       25.5631   41.0405    8.1323 C.ar      1 UNK         0.0000 
   5289 C(6)       25.5684   40.7276    9.4841 C.ar      1 UNK         0.0000 
   5290 C(7)       23.5953   40.5551   12.5539 C.2       1 UNK         0.0000 
   5291 C(8)       24.0362   40.1225   13.9266 C.3       1 UNK         0.0000 
   5292 H(1)       22.5640   42.0384   10.3666 H         1 UNK         0.0000 
   5293 H(2)       22.5466   42.5914    7.9789 H         1 UNK         0.0000 
   5294 H(3)       26.4063   40.7704    7.5086 H         1 UNK         0.0000 
   5295 H(4)       26.4190   40.2146    9.9156 H         1 UNK         0.0000 
   5296 H(5)       25.2762   41.9382    5.8415 H         1 UNK         0.0000 
   5297 H(6)       25.5121   40.4632   11.9779 H         1 UNK         0.0000 
   5298 H(7)       23.9579   40.9470   14.5866 H         1 UNK         0.0000 
   5299 H(8)       25.0330   39.7654   13.9469 H         1 UNK         0.0000 
   5300 H(9)       23.3557   39.3994   14.2946 H         1 UNK         0.0000 
   5301 O(1)       28.7563   30.6772    9.4321 O.3       1 UNK         0.0000 
   5302 O(2)       30.7541   36.8460    9.5479 O.2       1 UNK         0.0000 
   5303 N(1)       28.5729   36.2416    9.3602 N.am      1 UNK         0.0000 
   5304 C(1)       28.6724   34.8331    9.4114 C.ar      1 UNK         0.0000 
   5305 C(2)       29.7545   34.1449    9.9597 C.ar      1 UNK         0.0000 
   5306 C(3)       29.7616   32.7531    9.9633 C.ar      1 UNK         0.0000 
   5307 C(4)       28.6915   32.0385    9.4309 C.ar      1 UNK         0.0000 
   5308 C(5)       27.5959   32.7264    8.9107 C.ar      1 UNK         0.0000 
   5309 C(6)       27.5906   34.1140    8.9020 C.ar      1 UNK         0.0000 
   5310 C(7)       29.5637   37.1469    9.4070 C.2       1 UNK         0.0000 
   5311 C(8)       29.1228   38.5810    9.2860 C.3       1 UNK         0.0000 
   5312 H(1)       30.5951   34.6875   10.3744 H         1 UNK         0.0000 
   5313 H(2)       30.6124   32.2366   10.3903 H         1 UNK         0.0000 
   5314 H(3)       26.7528   32.1772    8.5104 H         1 UNK         0.0000 
   5315 H(4)       26.7400   34.6475    8.4961 H         1 UNK         0.0000 
   5316 H(5)       27.8828   30.2946    9.2841 H         1 UNK         0.0000 
   5317 H(6)       27.6470   36.6050    9.1910 H         1 UNK         0.0000 
   5318 H(7)       29.2011   39.0441   10.2352 H         1 UNK         0.0000 
   5319 H(8)       28.1261   38.6792    8.9420 H         1 UNK         0.0000 
   5320 H(9)       29.8033   39.0987    8.6612 H         1 UNK         0.0000 
   5321 O(1)       18.9362   42.8749   15.5017 O.3       1 UNK         0.0000 
   5322 O(2)       20.9340   44.1150    9.4577 O.2       1 UNK         0.0000 
   5323 N(1)       18.7528   44.1656   10.0886 N.am      1 UNK         0.0000 
   5324 C(1)       18.8523   43.8067   11.4515 C.ar      1 UNK         0.0000 
   5325 C(2)       19.9344   43.1208   12.0027 C.ar      1 UNK         0.0000 
   5326 C(3)       19.9415   42.8120   13.3599 C.ar      1 UNK         0.0000 
   5327 C(4)       18.8714   43.1747   14.1738 C.ar      1 UNK         0.0000 
   5328 C(5)       17.7758   43.8331   13.6167 C.ar      1 UNK         0.0000 
   5329 C(6)       17.7705   44.1460   12.2649 C.ar      1 UNK         0.0000 
   5330 C(7)       19.7436   44.3184    9.1951 C.2       1 UNK         0.0000 
   5331 C(8)       19.3027   44.7511    7.8224 C.3       1 UNK         0.0000 
   5332 H(1)       20.7750   42.8352   11.3824 H         1 UNK         0.0000 
   5333 H(2)       20.7923   42.2821   13.7701 H         1 UNK         0.0000 
   5334 H(3)       16.9327   44.1032   14.2404 H         1 UNK         0.0000 
   5335 H(4)       16.9199   44.6590   11.8334 H         1 UNK         0.0000 
   5336 H(5)       18.0627   42.9354   15.9075 H         1 UNK         0.0000 
   5337 H(6)       17.8269   44.4103    9.7711 H         1 UNK         0.0000 
   5338 H(7)       19.3810   43.9266    7.1624 H         1 UNK         0.0000 
   5339 H(8)       18.3060   45.1082    7.8021 H         1 UNK         0.0000 
   5340 H(9)       19.9832   45.4742    7.4544 H         1 UNK         0.0000 
   5341 O(1)       20.0689   39.5141   12.3169 O.3       1 UNK         0.0000 
   5342 O(2)       18.0711   33.3453   12.2011 O.2       1 UNK         0.0000 
   5343 N(1)       20.2522   33.9497   12.3888 N.am      1 UNK         0.0000 
   5344 C(1)       20.1527   35.3581   12.3376 C.ar      1 UNK         0.0000 
   5345 C(2)       19.0706   36.0463   11.7893 C.ar      1 UNK         0.0000 
   5346 C(3)       19.0636   37.4381   11.7858 C.ar      1 UNK         0.0000 
   5347 C(4)       20.1336   38.1527   12.3181 C.ar      1 UNK         0.0000 
   5348 C(5)       21.2292   37.4648   12.8383 C.ar      1 UNK         0.0000 
   5349 C(6)       21.2345   36.0773   12.8470 C.ar      1 UNK         0.0000 
   5350 C(7)       19.2614   33.0444   12.3420 C.2       1 UNK         0.0000 
   5351 C(8)       19.7023   31.6102   12.4630 C.3       1 UNK         0.0000 
   5352 H(1)       18.2301   35.5038   11.3746 H         1 UNK         0.0000 
   5353 H(2)       18.2128   37.9546   11.3587 H         1 UNK         0.0000 
   5354 H(3)       22.0724   38.0141   13.2386 H         1 UNK         0.0000 
   5355 H(4)       22.0851   35.5438   13.2530 H         1 UNK         0.0000 
   5356 H(5)       20.9423   39.8967   12.4649 H         1 UNK         0.0000 
   5357 H(6)       21.1782   33.5862   12.5580 H         1 UNK         0.0000 
   5358 H(7)       19.6240   31.1471   11.5138 H         1 UNK         0.0000 
   5359 H(8)       20.6991   31.5121   12.8070 H         1 UNK         0.0000 
   5360 H(9)       19.0218   31.0926   13.0878 H         1 UNK         0.0000 
   5361 O(1)       24.4028   47.7297   13.4097 O.3       1 UNK         0.0000 
   5362 O(2)       22.4050   46.4896   19.4537 O.2       1 UNK         0.0000 
   5363 N(1)       24.5861   46.4389   18.8228 N.am      1 UNK         0.0000 
   5364 C(1)       24.4866   46.7979   17.4599 C.ar      1 UNK         0.0000 
   5365 C(2)       23.4045   47.4837   16.9087 C.ar      1 UNK         0.0000 
   5366 C(3)       23.3975   47.7925   15.5516 C.ar      1 UNK         0.0000 
   5367 C(4)       24.4675   47.4298   14.7376 C.ar      1 UNK         0.0000 
   5368 C(5)       25.5631   46.7715   15.2947 C.ar      1 UNK         0.0000 
   5369 C(6)       25.5684   46.4586   16.6465 C.ar      1 UNK         0.0000 
   5370 C(7)       23.5953   46.2861   19.7163 C.2       1 UNK         0.0000 
   5371 C(8)       24.0362   45.8535   21.0890 C.3       1 UNK         0.0000 
   5372 H(1)       22.5640   47.7694   17.5290 H         1 UNK         0.0000 
   5373 H(2)       22.5466   48.3224   15.1413 H         1 UNK         0.0000 
   5374 H(3)       26.4063   46.5014   14.6710 H         1 UNK         0.0000 
   5375 H(4)       26.4190   45.9455   17.0780 H         1 UNK         0.0000 
   5376 H(5)       25.2762   47.6691   13.0039 H         1 UNK         0.0000 
   5377 H(6)       25.5121   46.1942   19.1403 H         1 UNK         0.0000 
   5378 H(7)       23.9579   46.6779   21.7490 H         1 UNK         0.0000 
   5379 H(8)       25.0330   45.4963   21.1093 H         1 UNK         0.0000 
   5380 H(9)       23.3557   45.1304   21.4570 H         1 UNK         0.0000 
   5381 O(1)       28.7563   36.4082   16.5945 O.3       1 UNK         0.0000 
   5382 O(2)       30.7541   42.5769   16.7103 O.2       1 UNK         0.0000 
   5383 N(1)       28.5729   41.9725   16.5226 N.am      1 UNK         0.0000 
   5384 C(1)       28.6724   40.5641   16.5738 C.ar      1 UNK         0.0000 
   5385 C(2)       29.7545   39.8759   17.1221 C.ar      1 UNK         0.0000 
   5386 C(3)       29.7616   38.4841   17.1257 C.ar      1 UNK         0.0000 
   5387 C(4)       28.6915   37.7695   16.5933 C.ar      1 UNK         0.0000 
   5388 C(5)       27.5959   38.4574   16.0731 C.ar      1 UNK         0.0000 
   5389 C(6)       27.5906   39.8449   16.0644 C.ar      1 UNK         0.0000 
   5390 C(7)       29.5637   42.8779   16.5694 C.2       1 UNK         0.0000 
   5391 C(8)       29.1228   44.3120   16.4484 C.3       1 UNK         0.0000 
   5392 H(1)       30.5951   40.4184   17.5368 H         1 UNK         0.0000 
   5393 H(2)       30.6124   37.9676   17.5527 H         1 UNK         0.0000 
   5394 H(3)       26.7528   37.9081   15.6728 H         1 UNK         0.0000 
   5395 H(4)       26.7400   40.3784   15.6585 H         1 UNK         0.0000 
   5396 H(5)       27.8828   36.0256   16.4465 H         1 UNK         0.0000 
   5397 H(6)       27.6470   42.3360   16.3534 H         1 UNK         0.0000 
   5398 H(7)       29.2011   44.7751   17.3976 H         1 UNK         0.0000 
   5399 H(8)       28.1261   44.4101   16.1044 H         1 UNK         0.0000 
   5400 H(9)       29.8033   44.8296   15.8236 H         1 UNK         0.0000 
   5401 O(1)       24.4224   33.9235   22.6641 O.3       1 UNK         0.0000 
   5402 O(2)       26.4202   35.1636   16.6201 O.2       1 UNK         0.0000 
   5403 N(1)       24.2390   35.2142   17.2510 N.am      1 UNK         0.0000 
   5404 C(1)       24.3385   34.8553   18.6139 C.ar      1 UNK         0.0000 
   5405 C(2)       25.4206   34.1694   19.1651 C.ar      1 UNK         0.0000 
   5406 C(3)       25.4277   33.8607   20.5223 C.ar      1 UNK         0.0000 
   5407 C(4)       24.3577   34.2233   21.3362 C.ar      1 UNK         0.0000 
   5408 C(5)       23.2620   34.8817   20.7791 C.ar      1 UNK         0.0000 
   5409 C(6)       23.2567   35.1946   19.4273 C.ar      1 UNK         0.0000 
   5410 C(7)       25.2298   35.3671   16.3575 C.2       1 UNK         0.0000 
   5411 C(8)       24.7890   35.7997   14.9848 C.3       1 UNK         0.0000 
   5412 H(1)       26.2612   33.8838   18.5448 H         1 UNK         0.0000 
   5413 H(2)       26.2785   33.3308   20.9325 H         1 UNK         0.0000 
   5414 H(3)       22.4189   35.1518   21.4028 H         1 UNK         0.0000 
   5415 H(4)       22.4061   35.7077   18.9958 H         1 UNK         0.0000 
   5416 H(5)       23.5489   33.9840   23.0699 H         1 UNK         0.0000 
   5417 H(6)       23.3131   35.4590   16.9335 H         1 UNK         0.0000 
   5418 H(7)       24.8672   34.9753   14.3248 H         1 UNK         0.0000 
   5419 H(8)       23.7922   36.1568   14.9645 H         1 UNK         0.0000 
   5420 H(9)       25.4694   36.5228   14.6168 H         1 UNK         0.0000 
   5421 O(1)       27.1459   45.2450   19.4793 O.3       1 UNK         0.0000 
   5422 O(2)       25.1481   39.0762   19.3635 O.2       1 UNK         0.0000 
   5423 N(1)       27.3292   39.6806   19.5512 N.am      1 UNK         0.0000 
   5424 C(1)       27.2297   41.0891   19.5000 C.ar      1 UNK         0.0000 
   5425 C(2)       26.1476   41.7773   18.9517 C.ar      1 UNK         0.0000 
   5426 C(3)       26.1406   43.1691   18.9482 C.ar      1 UNK         0.0000 
   5427 C(4)       27.2106   43.8837   19.4805 C.ar      1 UNK         0.0000 
   5428 C(5)       28.3062   43.1958   20.0007 C.ar      1 UNK         0.0000 
   5429 C(6)       28.3115   41.8082   20.0094 C.ar      1 UNK         0.0000 
   5430 C(7)       26.3384   38.7753   19.5044 C.2       1 UNK         0.0000 
   5431 C(8)       26.7793   37.3412   19.6254 C.3       1 UNK         0.0000 
   5432 H(1)       25.3071   41.2348   18.5370 H         1 UNK         0.0000 
   5433 H(2)       25.2898   43.6856   18.5211 H         1 UNK         0.0000 
   5434 H(3)       29.1494   43.7450   20.4010 H         1 UNK         0.0000 
   5435 H(4)       29.1621   41.2747   20.4154 H         1 UNK         0.0000 
   5436 H(5)       28.0193   45.6276   19.6273 H         1 UNK         0.0000 
   5437 H(6)       28.2552   39.3172   19.7204 H         1 UNK         0.0000 
   5438 H(7)       26.7010   36.8781   18.6762 H         1 UNK         0.0000 
   5439 H(8)       27.7761   37.2431   19.9694 H         1 UNK         0.0000 
   5440 H(9)       26.0988   36.8235   20.2502 H         1 UNK         0.0000 
   5441 O(1)       22.8120   38.7783   20.5721 O.3       1 UNK         0.0000 
   5442 O(2)       20.8142   37.5382   26.6161 O.2       1 UNK         0.0000 
   5443 N(1)       22.9953   37.4876   25.9852 N.am      1 UNK         0.0000 
   5444 C(1)       22.8959   37.8465   24.6223 C.ar      1 UNK         0.0000 
   5445 C(2)       21.8137   38.5324   24.0711 C.ar      1 UNK         0.0000 
   5446 C(3)       21.8067   38.8411   22.7140 C.ar      1 UNK         0.0000 
   5447 C(4)       22.8767   38.4785   21.9000 C.ar      1 UNK         0.0000 
   5448 C(5)       23.9723   37.8201   22.4571 C.ar      1 UNK         0.0000 
   5449 C(6)       23.9776   37.5072   23.8089 C.ar      1 UNK         0.0000 
   5450 C(7)       22.0045   37.3347   26.8787 C.2       1 UNK         0.0000 
   5451 C(8)       22.4454   36.9021   28.2514 C.3       1 UNK         0.0000 
   5452 H(1)       20.9732   38.8180   24.6914 H         1 UNK         0.0000 
   5453 H(2)       20.9559   39.3710   22.3037 H         1 UNK         0.0000 
   5454 H(3)       24.8155   37.5500   21.8334 H         1 UNK         0.0000 
   5455 H(4)       24.8282   36.9942   24.2404 H         1 UNK         0.0000 
   5456 H(5)       23.6854   38.7178   20.1663 H         1 UNK         0.0000 
   5457 H(6)       23.9213   37.2428   26.3027 H         1 UNK         0.0000 
   5458 H(7)       22.3671   37.7266   28.9114 H         1 UNK         0.0000 
   5459 H(8)       23.4422   36.5450   28.2717 H         1 UNK         0.0000 
   5460 H(9)       21.7649   36.1790   28.6194 H         1 UNK         0.0000 
   5461 O(1)       21.6793   42.1391   23.7569 O.3       1 UNK         0.0000 
   5462 O(2)       23.6771   48.3079   23.8727 O.2       1 UNK         0.0000 
   5463 N(1)       21.4959   47.7035   23.6850 N.am      1 UNK         0.0000 
   5464 C(1)       21.5954   46.2951   23.7362 C.ar      1 UNK         0.0000 
   5465 C(2)       22.6775   45.6068   24.2845 C.ar      1 UNK         0.0000 
   5466 C(3)       22.6846   44.2150   24.2881 C.ar      1 UNK         0.0000 
   5467 C(4)       21.6145   43.5004   23.7557 C.ar      1 UNK         0.0000 
   5468 C(5)       20.5189   44.1884   23.2355 C.ar      1 UNK         0.0000 
   5469 C(6)       20.5136   45.5759   23.2268 C.ar      1 UNK         0.0000 
   5470 C(7)       22.4867   48.6088   23.7318 C.2       1 UNK         0.0000 
   5471 C(8)       22.0459   50.0429   23.6108 C.3       1 UNK         0.0000 
   5472 H(1)       23.5181   46.1494   24.6992 H         1 UNK         0.0000 
   5473 H(2)       23.5354   43.6986   24.7151 H         1 UNK         0.0000 
   5474 H(3)       19.6758   43.6391   22.8352 H         1 UNK         0.0000 
   5475 H(4)       19.6630   46.1094   22.8209 H         1 UNK         0.0000 
   5476 H(5)       20.8058   41.7565   23.6089 H         1 UNK         0.0000 
   5477 H(6)       20.5700   48.0670   23.5158 H         1 UNK         0.0000 
   5478 H(7)       22.1241   50.5060   24.5600 H         1 UNK         0.0000 
   5479 H(8)       21.0491   50.1411   23.2668 H         1 UNK         0.0000 
   5480 H(9)       22.7263   50.5606   22.9860 H         1 UNK         0.0000 
   5481 O(1)       26.0132   37.1439    8.3393 O.3       1 UNK         0.0000 
   5482 O(2)       28.0110   38.3840    2.2953 O.2       1 UNK         0.0000 
   5483 N(1)       25.8298   38.4346    2.9262 N.am      1 UNK         0.0000 
   5484 C(1)       25.9293   38.0757    4.2891 C.ar      1 UNK         0.0000 
   5485 C(2)       27.0114   37.3898    4.8403 C.ar      1 UNK         0.0000 
   5486 C(3)       27.0185   37.0811    6.1975 C.ar      1 UNK         0.0000 
   5487 C(4)       25.9484   37.4437    7.0114 C.ar      1 UNK         0.0000 
   5488 C(5)       24.8528   38.1021    6.4543 C.ar      1 UNK         0.0000 
   5489 C(6)       24.8475   38.4150    5.1025 C.ar      1 UNK         0.0000 
   5490 C(7)       26.8206   38.5875    2.0327 C.2       1 UNK         0.0000 
   5491 C(8)       26.3797   39.0201    0.6600 C.3       1 UNK         0.0000 
   5492 H(1)       27.8520   37.1042    4.2200 H         1 UNK         0.0000 
   5493 H(2)       27.8693   36.5512    6.6077 H         1 UNK         0.0000 
   5494 H(3)       24.0097   38.3722    7.0780 H         1 UNK         0.0000 
   5495 H(4)       23.9969   38.9281    4.6710 H         1 UNK         0.0000 
   5496 H(5)       25.1397   37.2044    8.7451 H         1 UNK         0.0000 
   5497 H(6)       24.9039   38.6794    2.6087 H         1 UNK         0.0000 
   5498 H(7)       26.4580   38.1956    0.0000 H         1 UNK         0.0000 
   5499 H(8)       25.3830   39.3772    0.6397 H         1 UNK         0.0000 
   5500 H(9)       27.0602   39.7432    0.2920 H         1 UNK         0.0000 
   5501 O(1)       28.7367   48.4654    5.1545 O.3       1 UNK         0.0000 
   5502 O(2)       26.7388   42.2966    5.0387 O.2       1 UNK         0.0000 
   5503 N(1)       28.9200   42.9010    5.2264 N.am      1 UNK         0.0000 
   5504 C(1)       28.8205   44.3095    5.1752 C.ar      1 UNK         0.0000 
   5505 C(2)       27.7384   44.9977    4.6269 C.ar      1 UNK         0.0000 
   5506 C(3)       27.7313   46.3895    4.6234 C.ar      1 UNK         0.0000 
   5507 C(4)       28.8014   47.1041    5.1557 C.ar      1 UNK         0.0000 
   5508 C(5)       29.8970   46.4162    5.6759 C.ar      1 UNK         0.0000 
   5509 C(6)       29.9023   45.0286    5.6846 C.ar      1 UNK         0.0000 
   5510 C(7)       27.9292   41.9957    5.1796 C.2       1 UNK         0.0000 
   5511 C(8)       28.3701   40.5616    5.3006 C.3       1 UNK         0.0000 
   5512 H(1)       26.8978   44.4552    4.2122 H         1 UNK         0.0000 
   5513 H(2)       26.8805   46.9060    4.1963 H         1 UNK         0.0000 
   5514 H(3)       30.7401   46.9654    6.0762 H         1 UNK         0.0000 
   5515 H(4)       30.7529   44.4951    6.0906 H         1 UNK         0.0000 
   5516 H(5)       29.6101   48.8480    5.3025 H         1 UNK         0.0000 
   5517 H(6)       29.8460   42.5376    5.3956 H         1 UNK         0.0000 
   5518 H(7)       28.2918   40.0985    4.3514 H         1 UNK         0.0000 
   5519 H(8)       29.3668   40.4635    5.6446 H         1 UNK         0.0000 
   5520 H(9)       27.6896   40.0439    5.9254 H         1 UNK         0.0000 
   5521 O(1)       25.9936   56.6810    6.2473 O.3       1 UNK         0.0000 
   5522 O(2)       23.9957   55.4409   12.2913 O.2       1 UNK         0.0000 
   5523 N(1)       26.1769   55.3903   11.6604 N.am      1 UNK         0.0000 
   5524 C(1)       26.0774   55.7492   10.2975 C.ar      1 UNK         0.0000 
   5525 C(2)       24.9953   56.4351    9.7463 C.ar      1 UNK         0.0000 
   5526 C(3)       24.9882   56.7439    8.3892 C.ar      1 UNK         0.0000 
   5527 C(4)       26.0583   56.3812    7.5752 C.ar      1 UNK         0.0000 
   5528 C(5)       27.1539   55.7228    8.1323 C.ar      1 UNK         0.0000 
   5529 C(6)       27.1592   55.4100    9.4841 C.ar      1 UNK         0.0000 
   5530 C(7)       25.1861   55.2375   12.5539 C.2       1 UNK         0.0000 
   5531 C(8)       25.6270   54.8048   13.9266 C.3       1 UNK         0.0000 
   5532 H(1)       24.1547   56.7208   10.3666 H         1 UNK         0.0000 
   5533 H(2)       24.1374   57.2738    7.9789 H         1 UNK         0.0000 
   5534 H(3)       27.9970   55.4527    7.5086 H         1 UNK         0.0000 
   5535 H(4)       28.0098   54.8969    9.9156 H         1 UNK         0.0000 
   5536 H(5)       26.8670   56.6205    5.8415 H         1 UNK         0.0000 
   5537 H(6)       27.1028   55.1456   11.9779 H         1 UNK         0.0000 
   5538 H(7)       25.5487   55.6293   14.5866 H         1 UNK         0.0000 
   5539 H(8)       26.6237   54.4477   13.9469 H         1 UNK         0.0000 
   5540 H(9)       24.9465   54.0817   14.2946 H         1 UNK         0.0000 
   5541 O(1)       30.3470   45.3595    9.4321 O.3       1 UNK         0.0000 
   5542 O(2)       32.3449   51.5283    9.5479 O.2       1 UNK         0.0000 
   5543 N(1)       30.1637   50.9239    9.3602 N.am      1 UNK         0.0000 
   5544 C(1)       30.2632   49.5155    9.4114 C.ar      1 UNK         0.0000 
   5545 C(2)       31.3453   48.8272    9.9597 C.ar      1 UNK         0.0000 
   5546 C(3)       31.3524   47.4354    9.9633 C.ar      1 UNK         0.0000 
   5547 C(4)       30.2823   46.7208    9.4309 C.ar      1 UNK         0.0000 
   5548 C(5)       29.1867   47.4088    8.9107 C.ar      1 UNK         0.0000 
   5549 C(6)       29.1814   48.7963    8.9020 C.ar      1 UNK         0.0000 
   5550 C(7)       31.1545   51.8292    9.4070 C.2       1 UNK         0.0000 
   5551 C(8)       30.7136   53.2633    9.2860 C.3       1 UNK         0.0000 
   5552 H(1)       32.1859   49.3698   10.3744 H         1 UNK         0.0000 
   5553 H(2)       32.2032   46.9190   10.3903 H         1 UNK         0.0000 
   5554 H(3)       28.3436   46.8595    8.5104 H         1 UNK         0.0000 
   5555 H(4)       28.3308   49.3298    8.4961 H         1 UNK         0.0000 
   5556 H(5)       29.4736   44.9769    9.2841 H         1 UNK         0.0000 
   5557 H(6)       29.2377   51.2874    9.1910 H         1 UNK         0.0000 
   5558 H(7)       30.7919   53.7264   10.2352 H         1 UNK         0.0000 
   5559 H(8)       29.7169   53.3615    8.9420 H         1 UNK         0.0000 
   5560 H(9)       31.3941   53.7810    8.6612 H         1 UNK         0.0000 
   5561 O(1)       20.5269   57.5572   15.5017 O.3       1 UNK         0.0000 
   5562 O(2)       22.5248   58.7973    9.4577 O.2       1 UNK         0.0000 
   5563 N(1)       20.3436   58.8479   10.0886 N.am      1 UNK         0.0000 
   5564 C(1)       20.4431   58.4890   11.4515 C.ar      1 UNK         0.0000 
   5565 C(2)       21.5252   57.8031   12.0027 C.ar      1 UNK         0.0000 
   5566 C(3)       21.5322   57.4944   13.3599 C.ar      1 UNK         0.0000 
   5567 C(4)       20.4622   57.8570   14.1738 C.ar      1 UNK         0.0000 
   5568 C(5)       19.3666   58.5154   13.6167 C.ar      1 UNK         0.0000 
   5569 C(6)       19.3613   58.8283   12.2649 C.ar      1 UNK         0.0000 
   5570 C(7)       21.3344   59.0008    9.1951 C.2       1 UNK         0.0000 
   5571 C(8)       20.8935   59.4334    7.8224 C.3       1 UNK         0.0000 
   5572 H(1)       22.3658   57.5175   11.3824 H         1 UNK         0.0000 
   5573 H(2)       22.3831   56.9645   13.7701 H         1 UNK         0.0000 
   5574 H(3)       18.5234   58.7855   14.2404 H         1 UNK         0.0000 
   5575 H(4)       18.5107   59.3414   11.8334 H         1 UNK         0.0000 
   5576 H(5)       19.6535   57.6177   15.9075 H         1 UNK         0.0000 
   5577 H(6)       19.4176   59.0927    9.7711 H         1 UNK         0.0000 
   5578 H(7)       20.9718   58.6089    7.1624 H         1 UNK         0.0000 
   5579 H(8)       19.8967   59.7905    7.8021 H         1 UNK         0.0000 
   5580 H(9)       21.5740   60.1565    7.4544 H         1 UNK         0.0000 
   5581 O(1)       21.6597   54.1964   12.3169 O.3       1 UNK         0.0000 
   5582 O(2)       19.6618   48.0276   12.2011 O.2       1 UNK         0.0000 
   5583 N(1)       21.8430   48.6320   12.3888 N.am      1 UNK         0.0000 
   5584 C(1)       21.7435   50.0404   12.3376 C.ar      1 UNK         0.0000 
   5585 C(2)       20.6614   50.7287   11.7893 C.ar      1 UNK         0.0000 
   5586 C(3)       20.6543   52.1205   11.7858 C.ar      1 UNK         0.0000 
   5587 C(4)       21.7244   52.8351   12.3181 C.ar      1 UNK         0.0000 
   5588 C(5)       22.8200   52.1472   12.8383 C.ar      1 UNK         0.0000 
   5589 C(6)       22.8253   50.7596   12.8470 C.ar      1 UNK         0.0000 
   5590 C(7)       20.8522   47.7267   12.3420 C.2       1 UNK         0.0000 
   5591 C(8)       21.2931   46.2926   12.4630 C.3       1 UNK         0.0000 
   5592 H(1)       19.8208   50.1861   11.3746 H         1 UNK         0.0000 
   5593 H(2)       19.8035   52.6369   11.3587 H         1 UNK         0.0000 
   5594 H(3)       23.6631   52.6964   13.2386 H         1 UNK         0.0000 
   5595 H(4)       23.6759   50.2261   13.2530 H         1 UNK         0.0000 
   5596 H(5)       22.5331   54.5790   12.4649 H         1 UNK         0.0000 
   5597 H(6)       22.7690   48.2685   12.5580 H         1 UNK         0.0000 
   5598 H(7)       21.2148   45.8295   11.5138 H         1 UNK         0.0000 
   5599 H(8)       22.2898   46.1944   12.8070 H         1 UNK         0.0000 
   5600 H(9)       20.6126   45.7749   13.0878 H         1 UNK         0.0000 
   5601 O(1)       25.9936   62.4120   13.4097 O.3       1 UNK         0.0000 
   5602 O(2)       23.9957   61.1719   19.4537 O.2       1 UNK         0.0000 
   5603 N(1)       26.1769   61.1213   18.8228 N.am      1 UNK         0.0000 
   5604 C(1)       26.0774   61.4802   17.4599 C.ar      1 UNK         0.0000 
   5605 C(2)       24.9953   62.1661   16.9087 C.ar      1 UNK         0.0000 
   5606 C(3)       24.9882   62.4748   15.5516 C.ar      1 UNK         0.0000 
   5607 C(4)       26.0583   62.1122   14.7376 C.ar      1 UNK         0.0000 
   5608 C(5)       27.1539   61.4538   15.2947 C.ar      1 UNK         0.0000 
   5609 C(6)       27.1592   61.1409   16.6465 C.ar      1 UNK         0.0000 
   5610 C(7)       25.1861   60.9684   19.7163 C.2       1 UNK         0.0000 
   5611 C(8)       25.6270   60.5358   21.0890 C.3       1 UNK         0.0000 
   5612 H(1)       24.1547   62.4517   17.5290 H         1 UNK         0.0000 
   5613 H(2)       24.1374   63.0047   15.1413 H         1 UNK         0.0000 
   5614 H(3)       27.9970   61.1837   14.6710 H         1 UNK         0.0000 
   5615 H(4)       28.0098   60.6279   17.0780 H         1 UNK         0.0000 
   5616 H(5)       26.8670   62.3515   13.0039 H         1 UNK         0.0000 
   5617 H(6)       27.1028   60.8765   19.1403 H         1 UNK         0.0000 
   5618 H(7)       25.5487   61.3603   21.7490 H         1 UNK         0.0000 
   5619 H(8)       26.6237   60.1787   21.1093 H         1 UNK         0.0000 
   5620 H(9)       24.9465   59.8127   21.4570 H         1 UNK         0.0000 
   5621 O(1)       30.3470   51.0905   16.5945 O.3       1 UNK         0.0000 
   5622 O(2)       32.3449   57.2593   16.7103 O.2       1 UNK         0.0000 
   5623 N(1)       30.1637   56.6549   16.5226 N.am      1 UNK         0.0000 
   5624 C(1)       30.2632   55.2464   16.5738 C.ar      1 UNK         0.0000 
   5625 C(2)       31.3453   54.5582   17.1221 C.ar      1 UNK         0.0000 
   5626 C(3)       31.3524   53.1664   17.1257 C.ar      1 UNK         0.0000 
   5627 C(4)       30.2823   52.4518   16.5933 C.ar      1 UNK         0.0000 
   5628 C(5)       29.1867   53.1397   16.0731 C.ar      1 UNK         0.0000 
   5629 C(6)       29.1814   54.5273   16.0644 C.ar      1 UNK         0.0000 
   5630 C(7)       31.1545   57.5602   16.5694 C.2       1 UNK         0.0000 
   5631 C(8)       30.7136   58.9943   16.4484 C.3       1 UNK         0.0000 
   5632 H(1)       32.1859   55.1008   17.5368 H         1 UNK         0.0000 
   5633 H(2)       32.2032   52.6499   17.5527 H         1 UNK         0.0000 
   5634 H(3)       28.3436   52.5905   15.6728 H         1 UNK         0.0000 
   5635 H(4)       28.3308   55.0608   15.6585 H         1 UNK         0.0000 
   5636 H(5)       29.4736   50.7079   16.4465 H         1 UNK         0.0000 
   5637 H(6)       29.2377   57.0183   16.3534 H         1 UNK         0.0000 
   5638 H(7)       30.7919   59.4574   17.3976 H         1 UNK         0.0000 
   5639 H(8)       29.7169   59.0924   16.1044 H         1 UNK         0.0000 
   5640 H(9)       31.3941   59.5120   15.8236 H         1 UNK         0.0000 
   5641 O(1)       26.0132   48.6059   22.6641 O.3       1 UNK         0.0000 
   5642 O(2)       28.0110   49.8459   16.6201 O.2       1 UNK         0.0000 
   5643 N(1)       25.8298   49.8966   17.2510 N.am      1 UNK         0.0000 
   5644 C(1)       25.9293   49.5377   18.6139 C.ar      1 UNK         0.0000 
   5645 C(2)       27.0114   48.8518   19.1651 C.ar      1 UNK         0.0000 
   5646 C(3)       27.0185   48.5430   20.5223 C.ar      1 UNK         0.0000 
   5647 C(4)       25.9484   48.9057   21.3362 C.ar      1 UNK         0.0000 
   5648 C(5)       24.8528   49.5641   20.7791 C.ar      1 UNK         0.0000 
   5649 C(6)       24.8475   49.8769   19.4273 C.ar      1 UNK         0.0000 
   5650 C(7)       26.8206   50.0494   16.3575 C.2       1 UNK         0.0000 
   5651 C(8)       26.3797   50.4820   14.9848 C.3       1 UNK         0.0000 
   5652 H(1)       27.8520   48.5661   18.5448 H         1 UNK         0.0000 
   5653 H(2)       27.8693   48.0131   20.9325 H         1 UNK         0.0000 
   5654 H(3)       24.0097   49.8341   21.4028 H         1 UNK         0.0000 
   5655 H(4)       23.9969   50.3900   18.9958 H         1 UNK         0.0000 
   5656 H(5)       25.1397   48.6664   23.0699 H         1 UNK         0.0000 
   5657 H(6)       24.9039   50.1413   16.9335 H         1 UNK         0.0000 
   5658 H(7)       26.4580   49.6576   14.3248 H         1 UNK         0.0000 
   5659 H(8)       25.3830   50.8392   14.9645 H         1 UNK         0.0000 
   5660 H(9)       27.0602   51.2051   14.6168 H         1 UNK         0.0000 
   5661 O(1)       28.7367   59.9274   19.4793 O.3       1 UNK         0.0000 
   5662 O(2)       26.7388   53.7586   19.3635 O.2       1 UNK         0.0000 
   5663 N(1)       28.9200   54.3630   19.5512 N.am      1 UNK         0.0000 
   5664 C(1)       28.8205   55.7714   19.5000 C.ar      1 UNK         0.0000 
   5665 C(2)       27.7384   56.4596   18.9517 C.ar      1 UNK         0.0000 
   5666 C(3)       27.7313   57.8514   18.9482 C.ar      1 UNK         0.0000 
   5667 C(4)       28.8014   58.5660   19.4805 C.ar      1 UNK         0.0000 
   5668 C(5)       29.8970   57.8781   20.0007 C.ar      1 UNK         0.0000 
   5669 C(6)       29.9023   56.4906   20.0094 C.ar      1 UNK         0.0000 
   5670 C(7)       27.9292   53.4577   19.5044 C.2       1 UNK         0.0000 
   5671 C(8)       28.3701   52.0235   19.6254 C.3       1 UNK         0.0000 
   5672 H(1)       26.8978   55.9171   18.5370 H         1 UNK         0.0000 
   5673 H(2)       26.8805   58.3679   18.5211 H         1 UNK         0.0000 
   5674 H(3)       30.7401   58.4274   20.4010 H         1 UNK         0.0000 
   5675 H(4)       30.7529   55.9571   20.4154 H         1 UNK         0.0000 
   5676 H(5)       29.6101   60.3100   19.6273 H         1 UNK         0.0000 
   5677 H(6)       29.8460   53.9995   19.7204 H         1 UNK         0.0000 
   5678 H(7)       28.2918   51.5604   18.6762 H         1 UNK         0.0000 
   5679 H(8)       29.3668   51.9254   19.9694 H         1 UNK         0.0000 
   5680 H(9)       27.6896   51.5059   20.2502 H         1 UNK         0.0000 
   5681 O(1)       24.4028   53.4606   20.5721 O.3       1 UNK         0.0000 
   5682 O(2)       22.4050   52.2205   26.6161 O.2       1 UNK         0.0000 
   5683 N(1)       24.5861   52.1699   25.9852 N.am      1 UNK         0.0000 
   5684 C(1)       24.4866   52.5288   24.6223 C.ar      1 UNK         0.0000 
   5685 C(2)       23.4045   53.2147   24.0711 C.ar      1 UNK         0.0000 
   5686 C(3)       23.3975   53.5235   22.7140 C.ar      1 UNK         0.0000 
   5687 C(4)       24.4675   53.1608   21.9000 C.ar      1 UNK         0.0000 
   5688 C(5)       25.5631   52.5024   22.4571 C.ar      1 UNK         0.0000 
   5689 C(6)       25.5684   52.1896   23.8089 C.ar      1 UNK         0.0000 
   5690 C(7)       23.5953   52.0171   26.8787 C.2       1 UNK         0.0000 
   5691 C(8)       24.0362   51.5844   28.2514 C.3       1 UNK         0.0000 
   5692 H(1)       22.5640   53.5004   24.6914 H         1 UNK         0.0000 
   5693 H(2)       22.5466   54.0534   22.3037 H         1 UNK         0.0000 
   5694 H(3)       26.4063   52.2323   21.8334 H         1 UNK         0.0000 
   5695 H(4)       26.4190   51.6765   24.2404 H         1 UNK         0.0000 
   5696 H(5)       25.2762   53.4001   20.1663 H         1 UNK         0.0000 
   5697 H(6)       25.5121   51.9252   26.3027 H         1 UNK         0.0000 
   5698 H(7)       23.9579   52.4089   28.9114 H         1 UNK         0.0000 
   5699 H(8)       25.0330   51.2273   28.2717 H         1 UNK         0.0000 
   5700 H(9)       23.3557   50.8613   28.6194 H         1 UNK         0.0000 
   5701 O(1)       23.2700   56.8215   23.7569 O.3       1 UNK         0.0000 
   5702 O(2)       25.2679   62.9902   23.8727 O.2       1 UNK         0.0000 
   5703 N(1)       23.0867   62.3858   23.6850 N.am      1 UNK         0.0000 
   5704 C(1)       23.1862   60.9774   23.7362 C.ar      1 UNK         0.0000 
   5705 C(2)       24.2683   60.2892   24.2845 C.ar      1 UNK         0.0000 
   5706 C(3)       24.2754   58.8974   24.2881 C.ar      1 UNK         0.0000 
   5707 C(4)       23.2053   58.1828   23.7557 C.ar      1 UNK         0.0000 
   5708 C(5)       22.1097   58.8707   23.2355 C.ar      1 UNK         0.0000 
   5709 C(6)       22.1044   60.2582   23.2268 C.ar      1 UNK         0.0000 
   5710 C(7)       24.0775   63.2911   23.7318 C.2       1 UNK         0.0000 
   5711 C(8)       23.6366   64.7253   23.6108 C.3       1 UNK         0.0000 
   5712 H(1)       25.1089   60.8317   24.6992 H         1 UNK         0.0000 
   5713 H(2)       25.1262   58.3809   24.7151 H         1 UNK         0.0000 
   5714 H(3)       21.2666   58.3214   22.8352 H         1 UNK         0.0000 
   5715 H(4)       21.2538   60.7917   22.8209 H         1 UNK         0.0000 
   5716 H(5)       22.3966   56.4389   23.6089 H         1 UNK         0.0000 
   5717 H(6)       22.1607   62.7493   23.5158 H         1 UNK         0.0000 
   5718 H(7)       23.7149   65.1884   24.5600 H         1 UNK         0.0000 
   5719 H(8)       22.6399   64.8234   23.2668 H         1 UNK         0.0000 
   5720 H(9)       24.3171   65.2429   22.9860 H         1 UNK         0.0000 
   5721 O(1)       27.6039   51.8263    8.3393 O.3       1 UNK         0.0000 
   5722 O(2)       29.6017   53.0663    2.2953 O.2       1 UNK         0.0000 
   5723 N(1)       27.4206   53.1170    2.9262 N.am      1 UNK         0.0000 
   5724 C(1)       27.5201   52.7581    4.2891 C.ar      1 UNK         0.0000 
   5725 C(2)       28.6022   52.0722    4.8403 C.ar      1 UNK         0.0000 
   5726 C(3)       28.6092   51.7634    6.1975 C.ar      1 UNK         0.0000 
   5727 C(4)       27.5392   52.1261    7.0114 C.ar      1 UNK         0.0000 
   5728 C(5)       26.4436   52.7845    6.4543 C.ar      1 UNK         0.0000 
   5729 C(6)       26.4383   53.0973    5.1025 C.ar      1 UNK         0.0000 
   5730 C(7)       28.4114   53.2698    2.0327 C.2       1 UNK         0.0000 
   5731 C(8)       27.9705   53.7024    0.6600 C.3       1 UNK         0.0000 
   5732 H(1)       29.4428   51.7865    4.2200 H         1 UNK         0.0000 
   5733 H(2)       29.4601   51.2335    6.6077 H         1 UNK         0.0000 
   5734 H(3)       25.6004   53.0545    7.0780 H         1 UNK         0.0000 
   5735 H(4)       25.5877   53.6104    4.6710 H         1 UNK         0.0000 
   5736 H(5)       26.7305   51.8868    8.7451 H         1 UNK         0.0000 
   5737 H(6)       26.4946   53.3617    2.6087 H         1 UNK         0.0000 
   5738 H(7)       28.0488   52.8780    0.0000 H         1 UNK         0.0000 
   5739 H(8)       26.9737   54.0596    0.6397 H         1 UNK         0.0000 
   5740 H(9)       28.6510   54.4255    0.2920 H         1 UNK         0.0000 
   5741 O(1)       30.3274   63.1478    5.1545 O.3       1 UNK         0.0000 
   5742 O(2)       28.3296   56.9790    5.0387 O.2       1 UNK         0.0000 
   5743 N(1)       30.5108   57.5834    5.2264 N.am      1 UNK         0.0000 
   5744 C(1)       30.4113   58.9918    5.1752 C.ar      1 UNK         0.0000 
   5745 C(2)       29.3292   59.6800    4.6269 C.ar      1 UNK         0.0000 
   5746 C(3)       29.3221   61.0718    4.6234 C.ar      1 UNK         0.0000 
   5747 C(4)       30.3922   61.7864    5.1557 C.ar      1 UNK         0.0000 
   5748 C(5)       31.4878   61.0985    5.6759 C.ar      1 UNK         0.0000 
   5749 C(6)       31.4931   59.7110    5.6846 C.ar      1 UNK         0.0000 
   5750 C(7)       29.5200   56.6781    5.1796 C.2       1 UNK         0.0000 
   5751 C(8)       29.9609   55.2439    5.3006 C.3       1 UNK         0.0000 
   5752 H(1)       28.4886   59.1375    4.2122 H         1 UNK         0.0000 
   5753 H(2)       28.4713   61.5883    4.1963 H         1 UNK         0.0000 
   5754 H(3)       32.3309   61.6478    6.0762 H         1 UNK         0.0000 
   5755 H(4)       32.3437   59.1775    6.0906 H         1 UNK         0.0000 
   5756 H(5)       31.2009   63.5304    5.3025 H         1 UNK         0.0000 
   5757 H(6)       31.4367   57.2199    5.3956 H         1 UNK         0.0000 
   5758 H(7)       29.8826   54.7808    4.3514 H         1 UNK         0.0000 
   5759 H(8)       30.9576   55.1458    5.6446 H         1 UNK         0.0000 
   5760 H(9)       29.2804   54.7263    5.9254 H         1 UNK         0.0000 
   5761 O(1)       27.5843   71.3634    6.2473 O.3       1 UNK         0.0000 
   5762 O(2)       25.5865   70.1233   12.2913 O.2       1 UNK         0.0000 
   5763 N(1)       27.7677   70.0726   11.6604 N.am      1 UNK         0.0000 
   5764 C(1)       27.6682   70.4316   10.2975 C.ar      1 UNK         0.0000 
   5765 C(2)       26.5861   71.1174    9.7463 C.ar      1 UNK         0.0000 
   5766 C(3)       26.5790   71.4262    8.3892 C.ar      1 UNK         0.0000 
   5767 C(4)       27.6490   71.0635    7.5752 C.ar      1 UNK         0.0000 
   5768 C(5)       28.7447   70.4052    8.1323 C.ar      1 UNK         0.0000 
   5769 C(6)       28.7500   70.0923    9.4841 C.ar      1 UNK         0.0000 
   5770 C(7)       26.7769   69.9198   12.5539 C.2       1 UNK         0.0000 
   5771 C(8)       27.2177   69.4872   13.9266 C.3       1 UNK         0.0000 
   5772 H(1)       25.7455   71.4031   10.3666 H         1 UNK         0.0000 
   5773 H(2)       25.7282   71.9561    7.9789 H         1 UNK         0.0000 
   5774 H(3)       29.5878   70.1351    7.5086 H         1 UNK         0.0000 
   5775 H(4)       29.6006   69.5792    9.9156 H         1 UNK         0.0000 
   5776 H(5)       28.4578   71.3028    5.8415 H         1 UNK         0.0000 
   5777 H(6)       28.6936   69.8279   11.9779 H         1 UNK         0.0000 
   5778 H(7)       27.1395   70.3116   14.5866 H         1 UNK         0.0000 
   5779 H(8)       28.2145   69.1300   13.9469 H         1 UNK         0.0000 
   5780 H(9)       26.5373   68.7641   14.2946 H         1 UNK         0.0000 
   5781 O(1)       31.9378   60.0419    9.4321 O.3       1 UNK         0.0000 
   5782 O(2)       33.9356   66.2106    9.5479 O.2       1 UNK         0.0000 
   5783 N(1)       31.7545   65.6062    9.3602 N.am      1 UNK         0.0000 
   5784 C(1)       31.8540   64.1978    9.4114 C.ar      1 UNK         0.0000 
   5785 C(2)       32.9361   63.5096    9.9597 C.ar      1 UNK         0.0000 
   5786 C(3)       32.9431   62.1178    9.9633 C.ar      1 UNK         0.0000 
   5787 C(4)       31.8731   61.4032    9.4309 C.ar      1 UNK         0.0000 
   5788 C(5)       30.7775   62.0911    8.9107 C.ar      1 UNK         0.0000 
   5789 C(6)       30.7722   63.4786    8.9020 C.ar      1 UNK         0.0000 
   5790 C(7)       32.7453   66.5115    9.4070 C.2       1 UNK         0.0000 
   5791 C(8)       32.3044   67.9457    9.2860 C.3       1 UNK         0.0000 
   5792 H(1)       33.7766   64.0521   10.3744 H         1 UNK         0.0000 
   5793 H(2)       33.7940   61.6013   10.3903 H         1 UNK         0.0000 
   5794 H(3)       29.9343   61.5418    8.5104 H         1 UNK         0.0000 
   5795 H(4)       29.9216   64.0121    8.4961 H         1 UNK         0.0000 
   5796 H(5)       31.0644   59.6593    9.2841 H         1 UNK         0.0000 
   5797 H(6)       30.8285   65.9697    9.1910 H         1 UNK         0.0000 
   5798 H(7)       32.3827   68.4088   10.2352 H         1 UNK         0.0000 
   5799 H(8)       31.3076   68.0438    8.9420 H         1 UNK         0.0000 
   5800 H(9)       32.9849   68.4633    8.6612 H         1 UNK         0.0000 
   5801 O(1)       22.1177   72.2396   15.5017 O.3       1 UNK         0.0000 
   5802 O(2)       24.1155   73.4796    9.4577 O.2       1 UNK         0.0000 
   5803 N(1)       21.9344   73.5303   10.0886 N.am      1 UNK         0.0000 
   5804 C(1)       22.0338   73.1714   11.4515 C.ar      1 UNK         0.0000 
   5805 C(2)       23.1160   72.4855   12.0027 C.ar      1 UNK         0.0000 
   5806 C(3)       23.1230   72.1767   13.3599 C.ar      1 UNK         0.0000 
   5807 C(4)       22.0530   72.5394   14.1738 C.ar      1 UNK         0.0000 
   5808 C(5)       20.9574   73.1977   13.6167 C.ar      1 UNK         0.0000 
   5809 C(6)       20.9521   73.5106   12.2649 C.ar      1 UNK         0.0000 
   5810 C(7)       22.9252   73.6831    9.1951 C.2       1 UNK         0.0000 
   5811 C(8)       22.4843   74.1157    7.8224 C.3       1 UNK         0.0000 
   5812 H(1)       23.9565   72.1998   11.3824 H         1 UNK         0.0000 
   5813 H(2)       23.9738   71.6468   13.7701 H         1 UNK         0.0000 
   5814 H(3)       20.1142   73.4678   14.2404 H         1 UNK         0.0000 
   5815 H(4)       20.1015   74.0237   11.8334 H         1 UNK         0.0000 
   5816 H(5)       21.2443   72.3001   15.9075 H         1 UNK         0.0000 
   5817 H(6)       21.0084   73.7750    9.7711 H         1 UNK         0.0000 
   5818 H(7)       22.5626   73.2913    7.1624 H         1 UNK         0.0000 
   5819 H(8)       21.4875   74.4729    7.8021 H         1 UNK         0.0000 
   5820 H(9)       23.1648   74.8388    7.4544 H         1 UNK         0.0000 
   5821 O(1)       23.2504   68.8787   12.3169 O.3       1 UNK         0.0000 
   5822 O(2)       21.2526   62.7099   12.2011 O.2       1 UNK         0.0000 
   5823 N(1)       23.4338   63.3143   12.3888 N.am      1 UNK         0.0000 
   5824 C(1)       23.3343   64.7228   12.3376 C.ar      1 UNK         0.0000 
   5825 C(2)       22.2522   65.4110   11.7893 C.ar      1 UNK         0.0000 
   5826 C(3)       22.2451   66.8028   11.7858 C.ar      1 UNK         0.0000 
   5827 C(4)       23.3152   67.5174   12.3181 C.ar      1 UNK         0.0000 
   5828 C(5)       24.4108   66.8295   12.8383 C.ar      1 UNK         0.0000 
   5829 C(6)       24.4161   65.4419   12.8470 C.ar      1 UNK         0.0000 
   5830 C(7)       22.4430   62.4090   12.3420 C.2       1 UNK         0.0000 
   5831 C(8)       22.8839   60.9749   12.4630 C.3       1 UNK         0.0000 
   5832 H(1)       21.4116   64.8685   11.3746 H         1 UNK         0.0000 
   5833 H(2)       21.3943   67.3193   11.3587 H         1 UNK         0.0000 
   5834 H(3)       25.2539   67.3787   13.2386 H         1 UNK         0.0000 
   5835 H(4)       25.2667   64.9084   13.2530 H         1 UNK         0.0000 
   5836 H(5)       24.1239   69.2613   12.4649 H         1 UNK         0.0000 
   5837 H(6)       24.3597   62.9509   12.5580 H         1 UNK         0.0000 
   5838 H(7)       22.8056   60.5118   11.5138 H         1 UNK         0.0000 
   5839 H(8)       23.8806   60.8768   12.8070 H         1 UNK         0.0000 
   5840 H(9)       22.2034   60.4572   13.0878 H         1 UNK         0.0000 
   5841 O(1)       27.5843   77.0943   13.4097 O.3       1 UNK         0.0000 
   5842 O(2)       25.5865   75.8542   19.4537 O.2       1 UNK         0.0000 
   5843 N(1)       27.7677   75.8036   18.8228 N.am      1 UNK         0.0000 
   5844 C(1)       27.6682   76.1625   17.4599 C.ar      1 UNK         0.0000 
   5845 C(2)       26.5861   76.8484   16.9087 C.ar      1 UNK         0.0000 
   5846 C(3)       26.5790   77.1572   15.5516 C.ar      1 UNK         0.0000 
   5847 C(4)       27.6490   76.7945   14.7376 C.ar      1 UNK         0.0000 
   5848 C(5)       28.7447   76.1361   15.2947 C.ar      1 UNK         0.0000 
   5849 C(6)       28.7500   75.8232   16.6465 C.ar      1 UNK         0.0000 
   5850 C(7)       26.7769   75.6508   19.7163 C.2       1 UNK         0.0000 
   5851 C(8)       27.2177   75.2181   21.0890 C.3       1 UNK         0.0000 
   5852 H(1)       25.7455   77.1341   17.5290 H         1 UNK         0.0000 
   5853 H(2)       25.7282   77.6871   15.1413 H         1 UNK         0.0000 
   5854 H(3)       29.5878   75.8660   14.6710 H         1 UNK         0.0000 
   5855 H(4)       29.6006   75.3102   17.0780 H         1 UNK         0.0000 
   5856 H(5)       28.4578   77.0338   13.0039 H         1 UNK         0.0000 
   5857 H(6)       28.6936   75.5589   19.1403 H         1 UNK         0.0000 
   5858 H(7)       27.1395   76.0426   21.7490 H         1 UNK         0.0000 
   5859 H(8)       28.2145   74.8610   21.1093 H         1 UNK         0.0000 
   5860 H(9)       26.5373   74.4950   21.4570 H         1 UNK         0.0000 
   5861 O(1)       31.9378   65.7728   16.5945 O.3       1 UNK         0.0000 
   5862 O(2)       33.9356   71.9416   16.7103 O.2       1 UNK         0.0000 
   5863 N(1)       31.7545   71.3372   16.5226 N.am      1 UNK         0.0000 
   5864 C(1)       31.8540   69.9288   16.5738 C.ar      1 UNK         0.0000 
   5865 C(2)       32.9361   69.2405   17.1221 C.ar      1 UNK         0.0000 
   5866 C(3)       32.9431   67.8487   17.1257 C.ar      1 UNK         0.0000 
   5867 C(4)       31.8731   67.1341   16.5933 C.ar      1 UNK         0.0000 
   5868 C(5)       30.7775   67.8221   16.0731 C.ar      1 UNK         0.0000 
   5869 C(6)       30.7722   69.2096   16.0644 C.ar      1 UNK         0.0000 
   5870 C(7)       32.7453   72.2425   16.5694 C.2       1 UNK         0.0000 
   5871 C(8)       32.3044   73.6766   16.4484 C.3       1 UNK         0.0000 
   5872 H(1)       33.7766   69.7831   17.5368 H         1 UNK         0.0000 
   5873 H(2)       33.7940   67.3323   17.5527 H         1 UNK         0.0000 
   5874 H(3)       29.9343   67.2728   15.6728 H         1 UNK         0.0000 
   5875 H(4)       29.9216   69.7431   15.6585 H         1 UNK         0.0000 
   5876 H(5)       31.0644   65.3902   16.4465 H         1 UNK         0.0000 
   5877 H(6)       30.8285   71.7007   16.3534 H         1 UNK         0.0000 
   5878 H(7)       32.3827   74.1397   17.3976 H         1 UNK         0.0000 
   5879 H(8)       31.3076   73.7748   16.1044 H         1 UNK         0.0000 
   5880 H(9)       32.9849   74.1943   15.8236 H         1 UNK         0.0000 
   5881 O(1)       27.6039   63.2882   22.6641 O.3       1 UNK         0.0000 
   5882 O(2)       29.6017   64.5283   16.6201 O.2       1 UNK         0.0000 
   5883 N(1)       27.4206   64.5789   17.2510 N.am      1 UNK         0.0000 
   5884 C(1)       27.5201   64.2200   18.6139 C.ar      1 UNK         0.0000 
   5885 C(2)       28.6022   63.5341   19.1651 C.ar      1 UNK         0.0000 
   5886 C(3)       28.6092   63.2253   20.5223 C.ar      1 UNK         0.0000 
   5887 C(4)       27.5392   63.5880   21.3362 C.ar      1 UNK         0.0000 
   5888 C(5)       26.4436   64.2464   20.7791 C.ar      1 UNK         0.0000 
   5889 C(6)       26.4383   64.5593   19.4273 C.ar      1 UNK         0.0000 
   5890 C(7)       28.4114   64.7317   16.3575 C.2       1 UNK         0.0000 
   5891 C(8)       27.9705   65.1644   14.9848 C.3       1 UNK         0.0000 
   5892 H(1)       29.4428   63.2484   18.5448 H         1 UNK         0.0000 
   5893 H(2)       29.4601   62.6954   20.9325 H         1 UNK         0.0000 
   5894 H(3)       25.6004   64.5165   21.4028 H         1 UNK         0.0000 
   5895 H(4)       25.5877   65.0723   18.9958 H         1 UNK         0.0000 
   5896 H(5)       26.7305   63.3487   23.0699 H         1 UNK         0.0000 
   5897 H(6)       26.4946   64.8236   16.9335 H         1 UNK         0.0000 
   5898 H(7)       28.0488   64.3399   14.3248 H         1 UNK         0.0000 
   5899 H(8)       26.9737   65.5215   14.9645 H         1 UNK         0.0000 
   5900 H(9)       28.6510   65.8875   14.6168 H         1 UNK         0.0000 
   5901 O(1)       30.3274   74.6097   19.4793 O.3       1 UNK         0.0000 
   5902 O(2)       28.3296   68.4409   19.3635 O.2       1 UNK         0.0000 
   5903 N(1)       30.5108   69.0453   19.5512 N.am      1 UNK         0.0000 
   5904 C(1)       30.4113   70.4537   19.5000 C.ar      1 UNK         0.0000 
   5905 C(2)       29.3292   71.1420   18.9517 C.ar      1 UNK         0.0000 
   5906 C(3)       29.3221   72.5338   18.9482 C.ar      1 UNK         0.0000 
   5907 C(4)       30.3922   73.2484   19.4805 C.ar      1 UNK         0.0000 
   5908 C(5)       31.4878   72.5605   20.0007 C.ar      1 UNK         0.0000 
   5909 C(6)       31.4931   71.1729   20.0094 C.ar      1 UNK         0.0000 
   5910 C(7)       29.5200   68.1400   19.5044 C.2       1 UNK         0.0000 
   5911 C(8)       29.9609   66.7059   19.6254 C.3       1 UNK         0.0000 
   5912 H(1)       28.4886   70.5994   18.5370 H         1 UNK         0.0000 
   5913 H(2)       28.4713   73.0502   18.5211 H         1 UNK         0.0000 
   5914 H(3)       32.3309   73.1097   20.4010 H         1 UNK         0.0000 
   5915 H(4)       32.3437   70.6394   20.4154 H         1 UNK         0.0000 
   5916 H(5)       31.2009   74.9923   19.6273 H         1 UNK         0.0000 
   5917 H(6)       31.4367   68.6818   19.7204 H         1 UNK         0.0000 
   5918 H(7)       29.8826   66.2428   18.6762 H         1 UNK         0.0000 
   5919 H(8)       30.9576   66.6077   19.9694 H         1 UNK         0.0000 
   5920 H(9)       29.2804   66.1882   20.2502 H         1 UNK         0.0000 
   5921 O(1)       25.9936   68.1430   20.5721 O.3       1 UNK         0.0000 
   5922 O(2)       23.9957   66.9029   26.6161 O.2       1 UNK         0.0000 
   5923 N(1)       26.1769   66.8522   25.9852 N.am      1 UNK         0.0000 
   5924 C(1)       26.0774   67.2112   24.6223 C.ar      1 UNK         0.0000 
   5925 C(2)       24.9953   67.8970   24.0711 C.ar      1 UNK         0.0000 
   5926 C(3)       24.9882   68.2058   22.7140 C.ar      1 UNK         0.0000 
   5927 C(4)       26.0583   67.8431   21.9000 C.ar      1 UNK         0.0000 
   5928 C(5)       27.1539   67.1848   22.4571 C.ar      1 UNK         0.0000 
   5929 C(6)       27.1592   66.8719   23.8089 C.ar      1 UNK         0.0000 
   5930 C(7)       25.1861   66.6994   26.8787 C.2       1 UNK         0.0000 
   5931 C(8)       25.6270   66.2668   28.2514 C.3       1 UNK         0.0000 
   5932 H(1)       24.1547   68.1827   24.6914 H         1 UNK         0.0000 
   5933 H(2)       24.1374   68.7357   22.3037 H         1 UNK         0.0000 
   5934 H(3)       27.9970   66.9147   21.8334 H         1 UNK         0.0000 
   5935 H(4)       28.0098   66.3588   24.2404 H         1 UNK         0.0000 
   5936 H(5)       26.8670   68.0824   20.1663 H         1 UNK         0.0000 
   5937 H(6)       27.1028   66.6075   26.3027 H         1 UNK         0.0000 
   5938 H(7)       25.5487   67.0912   28.9114 H         1 UNK         0.0000 
   5939 H(8)       26.6237   65.9096   28.2717 H         1 UNK         0.0000 
   5940 H(9)       24.9465   65.5437   28.6194 H         1 UNK         0.0000 
   5941 O(1)       24.8608   71.5038   23.7569 O.3       1 UNK         0.0000 
   5942 O(2)       26.8586   77.6726   23.8727 O.2       1 UNK         0.0000 
   5943 N(1)       24.6775   77.0682   23.6850 N.am      1 UNK         0.0000 
   5944 C(1)       24.7770   75.6597   23.7362 C.ar      1 UNK         0.0000 
   5945 C(2)       25.8591   74.9715   24.2845 C.ar      1 UNK         0.0000 
   5946 C(3)       25.8661   73.5797   24.2881 C.ar      1 UNK         0.0000 
   5947 C(4)       24.7961   72.8651   23.7557 C.ar      1 UNK         0.0000 
   5948 C(5)       23.7005   73.5530   23.2355 C.ar      1 UNK         0.0000 
   5949 C(6)       23.6952   74.9406   23.2268 C.ar      1 UNK         0.0000 
   5950 C(7)       25.6683   77.9735   23.7318 C.2       1 UNK         0.0000 
   5951 C(8)       25.2274   79.4076   23.6108 C.3       1 UNK         0.0000 
   5952 H(1)       26.6996   75.5140   24.6992 H         1 UNK         0.0000 
   5953 H(2)       26.7170   73.0632   24.7151 H         1 UNK         0.0000 
   5954 H(3)       22.8573   73.0038   22.8352 H         1 UNK         0.0000 
   5955 H(4)       22.8446   75.4741   22.8209 H         1 UNK         0.0000 
   5956 H(5)       23.9874   71.1212   23.6089 H         1 UNK         0.0000 
   5957 H(6)       23.7515   77.4316   23.5158 H         1 UNK         0.0000 
   5958 H(7)       25.3057   79.8707   24.5600 H         1 UNK         0.0000 
   5959 H(8)       24.2306   79.5057   23.2668 H         1 UNK         0.0000 
   5960 H(9)       25.9079   79.9253   22.9860 H         1 UNK         0.0000 
   5961 O(1)       29.1947   66.5086    8.3393 O.3       1 UNK         0.0000 
   5962 O(2)       31.1925   67.7487    2.2953 O.2       1 UNK         0.0000 
   5963 N(1)       29.0114   67.7993    2.9262 N.am      1 UNK         0.0000 
   5964 C(1)       29.1108   67.4404    4.2891 C.ar      1 UNK         0.0000 
   5965 C(2)       30.1930   66.7545    4.8403 C.ar      1 UNK         0.0000 
   5966 C(3)       30.2000   66.4457    6.1975 C.ar      1 UNK         0.0000 
   5967 C(4)       29.1300   66.8084    7.0114 C.ar      1 UNK         0.0000 
   5968 C(5)       28.0344   67.4668    6.4543 C.ar      1 UNK         0.0000 
   5969 C(6)       28.0291   67.7797    5.1025 C.ar      1 UNK         0.0000 
   5970 C(7)       30.0022   67.9521    2.0327 C.2       1 UNK         0.0000 
   5971 C(8)       29.5613   68.3848    0.6600 C.3       1 UNK         0.0000 
   5972 H(1)       31.0335   66.4688    4.2200 H         1 UNK         0.0000 
   5973 H(2)       31.0508   65.9158    6.6077 H         1 UNK         0.0000 
   5974 H(3)       27.1912   67.7369    7.0780 H         1 UNK         0.0000 
   5975 H(4)       27.1785   68.2927    4.6710 H         1 UNK         0.0000 
   5976 H(5)       28.3213   66.5691    8.7451 H         1 UNK         0.0000 
   5977 H(6)       28.0854   68.0440    2.6087 H         1 UNK         0.0000 
   5978 H(7)       29.6396   67.5603    0.0000 H         1 UNK         0.0000 
   5979 H(8)       28.5645   68.7419    0.6397 H         1 UNK         0.0000 
   5980 H(9)       30.2418   69.1079    0.2920 H         1 UNK         0.0000 
   5981 O(1)       31.9182   77.8301    5.1545 O.3       1 UNK         0.0000 
   5982 O(2)       29.9204   71.6613    5.0387 O.2       1 UNK         0.0000 
   5983 N(1)       32.1016   72.2657    5.2264 N.am      1 UNK         0.0000 
   5984 C(1)       32.0021   73.6741    5.1752 C.ar      1 UNK         0.0000 
   5985 C(2)       30.9199   74.3624    4.6269 C.ar      1 UNK         0.0000 
   5986 C(3)       30.9129   75.7542    4.6234 C.ar      1 UNK         0.0000 
   5987 C(4)       31.9829   76.4688    5.1557 C.ar      1 UNK         0.0000 
   5988 C(5)       33.0785   75.7809    5.6759 C.ar      1 UNK         0.0000 
   5989 C(6)       33.0839   74.3933    5.6846 C.ar      1 UNK         0.0000 
   5990 C(7)       31.1108   71.3604    5.1796 C.2       1 UNK         0.0000 
   5991 C(8)       31.5516   69.9263    5.3006 C.3       1 UNK         0.0000 
   5992 H(1)       30.0794   73.8198    4.2122 H         1 UNK         0.0000 
   5993 H(2)       30.0621   76.2706    4.1963 H         1 UNK         0.0000 
   5994 H(3)       33.9217   76.3301    6.0762 H         1 UNK         0.0000 
   5995 H(4)       33.9345   73.8598    6.0906 H         1 UNK         0.0000 
   5996 H(5)       32.7917   78.2127    5.3025 H         1 UNK         0.0000 
   5997 H(6)       33.0275   71.9022    5.3956 H         1 UNK         0.0000 
   5998 H(7)       31.4734   69.4632    4.3514 H         1 UNK         0.0000 
   5999 H(8)       32.5484   69.8281    5.6446 H         1 UNK         0.0000 
   6000 H(9)       30.8712   69.4086    5.9254 H         1 UNK         0.0000 
   6001 O(1)       29.1751   86.0457    6.2473 O.3       1 UNK         0.0000 
   6002 O(2)       27.1773   84.8056   12.2913 O.2       1 UNK         0.0000 
   6003 N(1)       29.3584   84.7550   11.6604 N.am      1 UNK         0.0000 
   6004 C(1)       29.2590   85.1139   10.2975 C.ar      1 UNK         0.0000 
   6005 C(2)       28.1768   85.7998    9.7463 C.ar      1 UNK         0.0000 
   6006 C(3)       28.1698   86.1085    8.3892 C.ar      1 UNK         0.0000 
   6007 C(4)       29.2398   85.7459    7.5752 C.ar      1 UNK         0.0000 
   6008 C(5)       30.3354   85.0875    8.1323 C.ar      1 UNK         0.0000 
   6009 C(6)       30.3407   84.7746    9.4841 C.ar      1 UNK         0.0000 
   6010 C(7)       28.3677   84.6021   12.5539 C.2       1 UNK         0.0000 
   6011 C(8)       28.8085   84.1695   13.9266 C.3       1 UNK         0.0000 
   6012 H(1)       27.3363   86.0854   10.3666 H         1 UNK         0.0000 
   6013 H(2)       27.3190   86.6384    7.9789 H         1 UNK         0.0000 
   6014 H(3)       31.1786   84.8174    7.5086 H         1 UNK         0.0000 
   6015 H(4)       31.1914   84.2615    9.9156 H         1 UNK         0.0000 
   6016 H(5)       30.0486   85.9852    5.8415 H         1 UNK         0.0000 
   6017 H(6)       30.2844   84.5102   11.9779 H         1 UNK         0.0000 
   6018 H(7)       28.7303   84.9940   14.5866 H         1 UNK         0.0000 
   6019 H(8)       29.8053   83.8124   13.9469 H         1 UNK         0.0000 
   6020 H(9)       28.1280   83.4464   14.2946 H         1 UNK         0.0000 
   6021 O(1)       33.5286   74.7242    9.4321 O.3       1 UNK         0.0000 
   6022 O(2)       35.5264   80.8930    9.5479 O.2       1 UNK         0.0000 
   6023 N(1)       33.3453   80.2886    9.3602 N.am      1 UNK         0.0000 
   6024 C(1)       33.4447   78.8801    9.4114 C.ar      1 UNK         0.0000 
   6025 C(2)       34.5269   78.1919    9.9597 C.ar      1 UNK         0.0000 
   6026 C(3)       34.5339   76.8001    9.9633 C.ar      1 UNK         0.0000 
   6027 C(4)       33.4639   76.0855    9.4309 C.ar      1 UNK         0.0000 
   6028 C(5)       32.3683   76.7734    8.9107 C.ar      1 UNK         0.0000 
   6029 C(6)       32.3630   78.1610    8.9020 C.ar      1 UNK         0.0000 
   6030 C(7)       34.3361   81.1939    9.4070 C.2       1 UNK         0.0000 
   6031 C(8)       33.8952   82.6280    9.2860 C.3       1 UNK         0.0000 
   6032 H(1)       35.3674   78.7344   10.3744 H         1 UNK         0.0000 
   6033 H(2)       35.3847   76.2836   10.3903 H         1 UNK         0.0000 
   6034 H(3)       31.5251   76.2242    8.5104 H         1 UNK         0.0000 
   6035 H(4)       31.5124   78.6945    8.4961 H         1 UNK         0.0000 
   6036 H(5)       32.6552   74.3416    9.2841 H         1 UNK         0.0000 
   6037 H(6)       32.4193   80.6520    9.1910 H         1 UNK         0.0000 
   6038 H(7)       33.9735   83.0911   10.2352 H         1 UNK         0.0000 
   6039 H(8)       32.8984   82.7261    8.9420 H         1 UNK         0.0000 
   6040 H(9)       34.5757   83.1457    8.6612 H         1 UNK         0.0000 
   6041 O(1)       23.7085   86.9219   15.5017 O.3       1 UNK         0.0000 
   6042 O(2)       25.7063   88.1620    9.4577 O.2       1 UNK         0.0000 
   6043 N(1)       23.5252   88.2126   10.0886 N.am      1 UNK         0.0000 
   6044 C(1)       23.6246   87.8537   11.4515 C.ar      1 UNK         0.0000 
   6045 C(2)       24.7068   87.1678   12.0027 C.ar      1 UNK         0.0000 
   6046 C(3)       24.7138   86.8590   13.3599 C.ar      1 UNK         0.0000 
   6047 C(4)       23.6438   87.2217   14.1738 C.ar      1 UNK         0.0000 
   6048 C(5)       22.5482   87.8801   13.6167 C.ar      1 UNK         0.0000 
   6049 C(6)       22.5429   88.1930   12.2649 C.ar      1 UNK         0.0000 
   6050 C(7)       24.5160   88.3654    9.1951 C.2       1 UNK         0.0000 
   6051 C(8)       24.0751   88.7981    7.8224 C.3       1 UNK         0.0000 
   6052 H(1)       25.5473   86.8821   11.3824 H         1 UNK         0.0000 
   6053 H(2)       25.5646   86.3291   13.7701 H         1 UNK         0.0000 
   6054 H(3)       21.7050   88.1502   14.2404 H         1 UNK         0.0000 
   6055 H(4)       21.6923   88.7060   11.8334 H         1 UNK         0.0000 
   6056 H(5)       22.8351   86.9824   15.9075 H         1 UNK         0.0000 
   6057 H(6)       22.5992   88.4573    9.7711 H         1 UNK         0.0000 
   6058 H(7)       24.1534   87.9736    7.1624 H         1 UNK         0.0000 
   6059 H(8)       23.0783   89.1552    7.8021 H         1 UNK         0.0000 
   6060 H(9)       24.7556   89.5212    7.4544 H         1 UNK         0.0000 
   6061 O(1)       24.8412   83.5611   12.3169 O.3       1 UNK         0.0000 
   6062 O(2)       22.8434   77.3923   12.2011 O.2       1 UNK         0.0000 
   6063 N(1)       25.0246   77.9967   12.3888 N.am      1 UNK         0.0000 
   6064 C(1)       24.9251   79.4051   12.3376 C.ar      1 UNK         0.0000 
   6065 C(2)       23.8429   80.0933   11.7893 C.ar      1 UNK         0.0000 
   6066 C(3)       23.8359   81.4851   11.7858 C.ar      1 UNK         0.0000 
   6067 C(4)       24.9059   82.1997   12.3181 C.ar      1 UNK         0.0000 
   6068 C(5)       26.0015   81.5118   12.8383 C.ar      1 UNK         0.0000 
   6069 C(6)       26.0069   80.1243   12.8470 C.ar      1 UNK         0.0000 
   6070 C(7)       24.0338   77.0914   12.3420 C.2       1 UNK         0.0000 
   6071 C(8)       24.4746   75.6572   12.4630 C.3       1 UNK         0.0000 
   6072 H(1)       23.0024   79.5508   11.3746 H         1 UNK         0.0000 
   6073 H(2)       22.9851   82.0016   11.3587 H         1 UNK         0.0000 
   6074 H(3)       26.8447   82.0611   13.2386 H         1 UNK         0.0000 
   6075 H(4)       26.8575   79.5908   13.2530 H         1 UNK         0.0000 
   6076 H(5)       25.7147   83.9437   12.4649 H         1 UNK         0.0000 
   6077 H(6)       25.9505   77.6332   12.5580 H         1 UNK         0.0000 
   6078 H(7)       24.3964   75.1941   11.5138 H         1 UNK         0.0000 
   6079 H(8)       25.4714   75.5591   12.8070 H         1 UNK         0.0000 
   6080 H(9)       23.7942   75.1396   13.0878 H         1 UNK         0.0000 
   6081 O(1)       29.1751   91.7766   13.4097 O.3       1 UNK         0.0000 
   6082 O(2)       27.1773   90.5366   19.4537 O.2       1 UNK         0.0000 
   6083 N(1)       29.3584   90.4859   18.8228 N.am      1 UNK         0.0000 
   6084 C(1)       29.2590   90.8448   17.4599 C.ar      1 UNK         0.0000 
   6085 C(2)       28.1768   91.5307   16.9087 C.ar      1 UNK         0.0000 
   6086 C(3)       28.1698   91.8395   15.5516 C.ar      1 UNK         0.0000 
   6087 C(4)       29.2398   91.4768   14.7376 C.ar      1 UNK         0.0000 
   6088 C(5)       30.3354   90.8185   15.2947 C.ar      1 UNK         0.0000 
   6089 C(6)       30.3407   90.5056   16.6465 C.ar      1 UNK         0.0000 
   6090 C(7)       28.3677   90.3331   19.7163 C.2       1 UNK         0.0000 
   6091 C(8)       28.8085   89.9005   21.0890 C.3       1 UNK         0.0000 
   6092 H(1)       27.3363   91.8164   17.5290 H         1 UNK         0.0000 
   6093 H(2)       27.3190   92.3694   15.1413 H         1 UNK         0.0000 
   6094 H(3)       31.1786   90.5484   14.6710 H         1 UNK         0.0000 
   6095 H(4)       31.1914   89.9925   17.0780 H         1 UNK         0.0000 
   6096 H(5)       30.0486   91.7161   13.0039 H         1 UNK         0.0000 
   6097 H(6)       30.2844   90.2412   19.1403 H         1 UNK         0.0000 
   6098 H(7)       28.7303   90.7249   21.7490 H         1 UNK         0.0000 
   6099 H(8)       29.8053   89.5433   21.1093 H         1 UNK         0.0000 
   6100 H(9)       28.1280   89.1774   21.4570 H         1 UNK         0.0000 
   6101 O(1)       33.5286   80.4552   16.5945 O.3       1 UNK         0.0000 
   6102 O(2)       35.5264   86.6239   16.7103 O.2       1 UNK         0.0000 
   6103 N(1)       33.3453   86.0195   16.5226 N.am      1 UNK         0.0000 
   6104 C(1)       33.4447   84.6111   16.5738 C.ar      1 UNK         0.0000 
   6105 C(2)       34.5269   83.9229   17.1221 C.ar      1 UNK         0.0000 
   6106 C(3)       34.5339   82.5311   17.1257 C.ar      1 UNK         0.0000 
   6107 C(4)       33.4639   81.8165   16.5933 C.ar      1 UNK         0.0000 
   6108 C(5)       32.3683   82.5044   16.0731 C.ar      1 UNK         0.0000 
   6109 C(6)       32.3630   83.8919   16.0644 C.ar      1 UNK         0.0000 
   6110 C(7)       34.3361   86.9248   16.5694 C.2       1 UNK         0.0000 
   6111 C(8)       33.8952   88.3590   16.4484 C.3       1 UNK         0.0000 
   6112 H(1)       35.3674   84.4654   17.5368 H         1 UNK         0.0000 
   6113 H(2)       35.3847   82.0146   17.5527 H         1 UNK         0.0000 
   6114 H(3)       31.5251   81.9551   15.6728 H         1 UNK         0.0000 
   6115 H(4)       31.5124   84.4254   15.6585 H         1 UNK         0.0000 
   6116 H(5)       32.6552   80.0725   16.4465 H         1 UNK         0.0000 
   6117 H(6)       32.4193   86.3830   16.3534 H         1 UNK         0.0000 
   6118 H(7)       33.9735   88.8221   17.3976 H         1 UNK         0.0000 
   6119 H(8)       32.8984   88.4571   16.1044 H         1 UNK         0.0000 
   6120 H(9)       34.5757   88.8766   15.8236 H         1 UNK         0.0000 
   6121 O(1)       29.1947   77.9705   22.6641 O.3       1 UNK         0.0000 
   6122 O(2)       31.1925   79.2106   16.6201 O.2       1 UNK         0.0000 
   6123 N(1)       29.0114   79.2612   17.2510 N.am      1 UNK         0.0000 
   6124 C(1)       29.1108   78.9023   18.6139 C.ar      1 UNK         0.0000 
   6125 C(2)       30.1930   78.2164   19.1651 C.ar      1 UNK         0.0000 
   6126 C(3)       30.2000   77.9077   20.5223 C.ar      1 UNK         0.0000 
   6127 C(4)       29.1300   78.2703   21.3362 C.ar      1 UNK         0.0000 
   6128 C(5)       28.0344   78.9287   20.7791 C.ar      1 UNK         0.0000 
   6129 C(6)       28.0291   79.2416   19.4273 C.ar      1 UNK         0.0000 
   6130 C(7)       30.0022   79.4141   16.3575 C.2       1 UNK         0.0000 
   6131 C(8)       29.5613   79.8467   14.9848 C.3       1 UNK         0.0000 
   6132 H(1)       31.0335   77.9308   18.5448 H         1 UNK         0.0000 
   6133 H(2)       31.0508   77.3778   20.9325 H         1 UNK         0.0000 
   6134 H(3)       27.1912   79.1988   21.4028 H         1 UNK         0.0000 
   6135 H(4)       27.1785   79.7547   18.9958 H         1 UNK         0.0000 
   6136 H(5)       28.3213   78.0310   23.0699 H         1 UNK         0.0000 
   6137 H(6)       28.0854   79.5060   16.9335 H         1 UNK         0.0000 
   6138 H(7)       29.6396   79.0222   14.3248 H         1 UNK         0.0000 
   6139 H(8)       28.5645   80.2038   14.9645 H         1 UNK         0.0000 
   6140 H(9)       30.2418   80.5698   14.6168 H         1 UNK         0.0000 
   6141 O(1)       31.9182   89.2920   19.4793 O.3       1 UNK         0.0000 
   6142 O(2)       29.9204   83.1232   19.3635 O.2       1 UNK         0.0000 
   6143 N(1)       32.1016   83.7276   19.5512 N.am      1 UNK         0.0000 
   6144 C(1)       32.0021   85.1361   19.5000 C.ar      1 UNK         0.0000 
   6145 C(2)       30.9199   85.8243   18.9517 C.ar      1 UNK         0.0000 
   6146 C(3)       30.9129   87.2161   18.9482 C.ar      1 UNK         0.0000 
   6147 C(4)       31.9829   87.9307   19.4805 C.ar      1 UNK         0.0000 
   6148 C(5)       33.0785   87.2428   20.0007 C.ar      1 UNK         0.0000 
   6149 C(6)       33.0839   85.8552   20.0094 C.ar      1 UNK         0.0000 
   6150 C(7)       31.1108   82.8223   19.5044 C.2       1 UNK         0.0000 
   6151 C(8)       31.5516   81.3882   19.6254 C.3       1 UNK         0.0000 
   6152 H(1)       30.0794   85.2818   18.5370 H         1 UNK         0.0000 
   6153 H(2)       30.0621   87.7326   18.5211 H         1 UNK         0.0000 
   6154 H(3)       33.9217   87.7920   20.4010 H         1 UNK         0.0000 
   6155 H(4)       33.9345   85.3217   20.4154 H         1 UNK         0.0000 
   6156 H(5)       32.7917   89.6746   19.6273 H         1 UNK         0.0000 
   6157 H(6)       33.0275   83.3642   19.7204 H         1 UNK         0.0000 
   6158 H(7)       31.4734   80.9251   18.6762 H         1 UNK         0.0000 
   6159 H(8)       32.5484   81.2901   19.9694 H         1 UNK         0.0000 
   6160 H(9)       30.8712   80.8705   20.2502 H         1 UNK         0.0000 
   6161 O(1)       27.5843   82.8253   20.5721 O.3       1 UNK         0.0000 
   6162 O(2)       25.5865   81.5852   26.6161 O.2       1 UNK         0.0000 
   6163 N(1)       27.7677   81.5346   25.9852 N.am      1 UNK         0.0000 
   6164 C(1)       27.6682   81.8935   24.6223 C.ar      1 UNK         0.0000 
   6165 C(2)       26.5861   82.5794   24.0711 C.ar      1 UNK         0.0000 
   6166 C(3)       26.5790   82.8881   22.7140 C.ar      1 UNK         0.0000 
   6167 C(4)       27.6490   82.5255   21.9000 C.ar      1 UNK         0.0000 
   6168 C(5)       28.7447   81.8671   22.4571 C.ar      1 UNK         0.0000 
   6169 C(6)       28.7500   81.5542   23.8089 C.ar      1 UNK         0.0000 
   6170 C(7)       26.7769   81.3817   26.8787 C.2       1 UNK         0.0000 
   6171 C(8)       27.2177   80.9491   28.2514 C.3       1 UNK         0.0000 
   6172 H(1)       25.7455   82.8650   24.6914 H         1 UNK         0.0000 
   6173 H(2)       25.7282   83.4180   22.3037 H         1 UNK         0.0000 
   6174 H(3)       29.5878   81.5970   21.8334 H         1 UNK         0.0000 
   6175 H(4)       29.6006   81.0412   24.2404 H         1 UNK         0.0000 
   6176 H(5)       28.4578   82.7648   20.1663 H         1 UNK         0.0000 
   6177 H(6)       28.6936   81.2898   26.3027 H         1 UNK         0.0000 
   6178 H(7)       27.1395   81.7736   28.9114 H         1 UNK         0.0000 
   6179 H(8)       28.2145   80.5920   28.2717 H         1 UNK         0.0000 
   6180 H(9)       26.5373   80.2260   28.6194 H         1 UNK         0.0000 
   6181 O(1)       26.4516   86.1861   23.7569 O.3       1 UNK         0.0000 
   6182 O(2)       28.4494   92.3549   23.8727 O.2       1 UNK         0.0000 
   6183 N(1)       26.2683   91.7505   23.6850 N.am      1 UNK         0.0000 
   6184 C(1)       26.3677   90.3421   23.7362 C.ar      1 UNK         0.0000 
   6185 C(2)       27.4499   89.6538   24.2845 C.ar      1 UNK         0.0000 
   6186 C(3)       27.4569   88.2620   24.2881 C.ar      1 UNK         0.0000 
   6187 C(4)       26.3869   87.5474   23.7557 C.ar      1 UNK         0.0000 
   6188 C(5)       25.2913   88.2353   23.2355 C.ar      1 UNK         0.0000 
   6189 C(6)       25.2860   89.6229   23.2268 C.ar      1 UNK         0.0000 
   6190 C(7)       27.2591   92.6558   23.7318 C.2       1 UNK         0.0000 
   6191 C(8)       26.8182   94.0899   23.6108 C.3       1 UNK         0.0000 
   6192 H(1)       28.2904   90.1964   24.6992 H         1 UNK         0.0000 
   6193 H(2)       28.3077   87.7456   24.7151 H         1 UNK         0.0000 
   6194 H(3)       24.4481   87.6861   22.8352 H         1 UNK         0.0000 
   6195 H(4)       24.4354   90.1564   22.8209 H         1 UNK         0.0000 
   6196 H(5)       25.5782   85.8035   23.6089 H         1 UNK         0.0000 
   6197 H(6)       25.3423   92.1140   23.5158 H         1 UNK         0.0000 
   6198 H(7)       26.8965   94.5530   24.5600 H         1 UNK         0.0000 
   6199 H(8)       25.8214   94.1881   23.2668 H         1 UNK         0.0000 
   6200 H(9)       27.4987   94.6076   22.9860 H         1 UNK         0.0000 
   6201 O(1)       30.7855   81.1909    8.3393 O.3       1 UNK         0.0000 
   6202 O(2)       32.7833   82.4310    2.2953 O.2       1 UNK         0.0000 
   6203 N(1)       30.6022   82.4816    2.9262 N.am      1 UNK         0.0000 
   6204 C(1)       30.7016   82.1227    4.2891 C.ar      1 UNK         0.0000 
   6205 C(2)       31.7838   81.4368    4.8403 C.ar      1 UNK         0.0000 
   6206 C(3)       31.7908   81.1281    6.1975 C.ar      1 UNK         0.0000 
   6207 C(4)       30.7208   81.4907    7.0114 C.ar      1 UNK         0.0000 
   6208 C(5)       29.6252   82.1491    6.4543 C.ar      1 UNK         0.0000 
   6209 C(6)       29.6199   82.4620    5.1025 C.ar      1 UNK         0.0000 
   6210 C(7)       31.5929   82.6345    2.0327 C.2       1 UNK         0.0000 
   6211 C(8)       31.1521   83.0671    0.6600 C.3       1 UNK         0.0000 
   6212 H(1)       32.6243   81.1512    4.2200 H         1 UNK         0.0000 
   6213 H(2)       32.6416   80.5982    6.6077 H         1 UNK         0.0000 
   6214 H(3)       28.7820   82.4192    7.0780 H         1 UNK         0.0000 
   6215 H(4)       28.7693   82.9751    4.6710 H         1 UNK         0.0000 
   6216 H(5)       29.9121   81.2514    8.7451 H         1 UNK         0.0000 
   6217 H(6)       29.6762   82.7264    2.6087 H         1 UNK         0.0000 
   6218 H(7)       31.2304   82.2426    0.0000 H         1 UNK         0.0000 
   6219 H(8)       30.1553   83.4242    0.6397 H         1 UNK         0.0000 
   6220 H(9)       31.8326   83.7902    0.2920 H         1 UNK         0.0000 
   6221 O(1)       33.5090   92.5124    5.1545 O.3       1 UNK         0.0000 
   6222 O(2)       31.5112   86.3436    5.0387 O.2       1 UNK         0.0000 
   6223 N(1)       33.6923   86.9480    5.2264 N.am      1 UNK         0.0000 
   6224 C(1)       33.5929   88.3565    5.1752 C.ar      1 UNK         0.0000 
   6225 C(2)       32.5107   89.0447    4.6269 C.ar      1 UNK         0.0000 
   6226 C(3)       32.5037   90.4365    4.6234 C.ar      1 UNK         0.0000 
   6227 C(4)       33.5737   91.1511    5.1557 C.ar      1 UNK         0.0000 
   6228 C(5)       34.6693   90.4632    5.6759 C.ar      1 UNK         0.0000 
   6229 C(6)       34.6746   89.0756    5.6846 C.ar      1 UNK         0.0000 
   6230 C(7)       32.7016   86.0427    5.1796 C.2       1 UNK         0.0000 
   6231 C(8)       33.1424   84.6086    5.3006 C.3       1 UNK         0.0000 
   6232 H(1)       31.6702   88.5022    4.2122 H         1 UNK         0.0000 
   6233 H(2)       31.6529   90.9530    4.1963 H         1 UNK         0.0000 
   6234 H(3)       35.5125   91.0124    6.0762 H         1 UNK         0.0000 
   6235 H(4)       35.5253   88.5421    6.0906 H         1 UNK         0.0000 
   6236 H(5)       34.3824   92.8950    5.3025 H         1 UNK         0.0000 
   6237 H(6)       34.6183   86.5846    5.3956 H         1 UNK         0.0000 
   6238 H(7)       33.0642   84.1455    4.3514 H         1 UNK         0.0000 
   6239 H(8)       34.1392   84.5105    5.6446 H         1 UNK         0.0000 
   6240 H(9)       32.4619   84.0909    5.9254 H         1 UNK         0.0000 
   6241 O(1)       30.7659  100.7280    6.2473 O.3       1 UNK         0.0000 
   6242 O(2)       28.7681   99.4879   12.2913 O.2       1 UNK         0.0000 
   6243 N(1)       30.9492   99.4373   11.6604 N.am      1 UNK         0.0000 
   6244 C(1)       30.8498   99.7962   10.2975 C.ar      1 UNK         0.0000 
   6245 C(2)       29.7676  100.4821    9.7463 C.ar      1 UNK         0.0000 
   6246 C(3)       29.7606  100.7909    8.3892 C.ar      1 UNK         0.0000 
   6247 C(4)       30.8306  100.4282    7.5752 C.ar      1 UNK         0.0000 
   6248 C(5)       31.9262   99.7698    8.1323 C.ar      1 UNK         0.0000 
   6249 C(6)       31.9315   99.4569    9.4841 C.ar      1 UNK         0.0000 
   6250 C(7)       29.9585   99.2845   12.5539 C.2       1 UNK         0.0000 
   6251 C(8)       30.3993   98.8518   13.9266 C.3       1 UNK         0.0000 
   6252 H(1)       28.9271  100.7678   10.3666 H         1 UNK         0.0000 
   6253 H(2)       28.9098  101.3208    7.9789 H         1 UNK         0.0000 
   6254 H(3)       32.7694   99.4997    7.5086 H         1 UNK         0.0000 
   6255 H(4)       32.7821   98.9439    9.9156 H         1 UNK         0.0000 
   6256 H(5)       31.6393  100.6675    5.8415 H         1 UNK         0.0000 
   6257 H(6)       31.8752   99.1926   11.9779 H         1 UNK         0.0000 
   6258 H(7)       30.3210   99.6763   14.5866 H         1 UNK         0.0000 
   6259 H(8)       31.3961   98.4947   13.9469 H         1 UNK         0.0000 
   6260 H(9)       29.7188   98.1287   14.2946 H         1 UNK         0.0000 
   6261 O(1)       35.1194   89.4065    9.4321 O.3       1 UNK         0.0000 
   6262 O(2)       37.1172   95.5753    9.5479 O.2       1 UNK         0.0000 
   6263 N(1)       34.9361   94.9709    9.3602 N.am      1 UNK         0.0000 
   6264 C(1)       35.0355   93.5625    9.4114 C.ar      1 UNK         0.0000 
   6265 C(2)       36.1177   92.8742    9.9597 C.ar      1 UNK         0.0000 
   6266 C(3)       36.1247   91.4824    9.9633 C.ar      1 UNK         0.0000 
   6267 C(4)       35.0547   90.7678    9.4309 C.ar      1 UNK         0.0000 
   6268 C(5)       33.9591   91.4557    8.9107 C.ar      1 UNK         0.0000 
   6269 C(6)       33.9538   92.8433    8.9020 C.ar      1 UNK         0.0000 
   6270 C(7)       35.9268   95.8762    9.4070 C.2       1 UNK         0.0000 
   6271 C(8)       35.4860   97.3103    9.2860 C.3       1 UNK         0.0000 
   6272 H(1)       36.9582   93.4168   10.3744 H         1 UNK         0.0000 
   6273 H(2)       36.9755   90.9660   10.3903 H         1 UNK         0.0000 
   6274 H(3)       33.1159   90.9065    8.5104 H         1 UNK         0.0000 
   6275 H(4)       33.1031   93.3768    8.4961 H         1 UNK         0.0000 
   6276 H(5)       34.2460   89.0239    9.2841 H         1 UNK         0.0000 
   6277 H(6)       34.0101   95.3344    9.1910 H         1 UNK         0.0000 
   6278 H(7)       35.5642   97.7734   10.2352 H         1 UNK         0.0000 
   6279 H(8)       34.4892   97.4085    8.9420 H         1 UNK         0.0000 
   6280 H(9)       36.1665   97.8280    8.6612 H         1 UNK         0.0000 
   6281 O(1)       25.2993  101.6042   15.5017 O.3       1 UNK         0.0000 
   6282 O(2)       27.2971  102.8443    9.4577 O.2       1 UNK         0.0000 
   6283 N(1)       25.1160  102.8949   10.0886 N.am      1 UNK         0.0000 
   6284 C(1)       25.2154  102.5360   11.4515 C.ar      1 UNK         0.0000 
   6285 C(2)       26.2976  101.8501   12.0027 C.ar      1 UNK         0.0000 
   6286 C(3)       26.3046  101.5414   13.3599 C.ar      1 UNK         0.0000 
   6287 C(4)       25.2346  101.9040   14.1738 C.ar      1 UNK         0.0000 
   6288 C(5)       24.1390  102.5624   13.6167 C.ar      1 UNK         0.0000 
   6289 C(6)       24.1337  102.8753   12.2649 C.ar      1 UNK         0.0000 
   6290 C(7)       26.1067  103.0478    9.1951 C.2       1 UNK         0.0000 
   6291 C(8)       25.6659  103.4804    7.8224 C.3       1 UNK         0.0000 
   6292 H(1)       27.1381  101.5645   11.3824 H         1 UNK         0.0000 
   6293 H(2)       27.1554  101.0115   13.7701 H         1 UNK         0.0000 
   6294 H(3)       23.2958  102.8325   14.2404 H         1 UNK         0.0000 
   6295 H(4)       23.2830  103.3883   11.8334 H         1 UNK         0.0000 
   6296 H(5)       24.4258  101.6647   15.9075 H         1 UNK         0.0000 
   6297 H(6)       24.1900  103.1397    9.7711 H         1 UNK         0.0000 
   6298 H(7)       25.7441  102.6559    7.1624 H         1 UNK         0.0000 
   6299 H(8)       24.6691  103.8375    7.8021 H         1 UNK         0.0000 
   6300 H(9)       26.3464  104.2035    7.4544 H         1 UNK         0.0000 
   6301 O(1)       26.4320   98.2434   12.3169 O.3       1 UNK         0.0000 
   6302 O(2)       24.4342   92.0746   12.2011 O.2       1 UNK         0.0000 
   6303 N(1)       26.6153   92.6790   12.3888 N.am      1 UNK         0.0000 
   6304 C(1)       26.5159   94.0874   12.3376 C.ar      1 UNK         0.0000 
   6305 C(2)       25.4337   94.7757   11.7893 C.ar      1 UNK         0.0000 
   6306 C(3)       25.4267   96.1675   11.7858 C.ar      1 UNK         0.0000 
   6307 C(4)       26.4967   96.8821   12.3181 C.ar      1 UNK         0.0000 
   6308 C(5)       27.5923   96.1941   12.8383 C.ar      1 UNK         0.0000 
   6309 C(6)       27.5976   94.8066   12.8470 C.ar      1 UNK         0.0000 
   6310 C(7)       25.6246   91.7737   12.3420 C.2       1 UNK         0.0000 
   6311 C(8)       26.0654   90.3396   12.4630 C.3       1 UNK         0.0000 
   6312 H(1)       24.5932   94.2331   11.3746 H         1 UNK         0.0000 
   6313 H(2)       24.5759   96.6839   11.3587 H         1 UNK         0.0000 
   6314 H(3)       28.4355   96.7434   13.2386 H         1 UNK         0.0000 
   6315 H(4)       28.4483   94.2731   13.2530 H         1 UNK         0.0000 
   6316 H(5)       27.3054   98.6260   12.4649 H         1 UNK         0.0000 
   6317 H(6)       27.5413   92.3155   12.5580 H         1 UNK         0.0000 
   6318 H(7)       25.9872   89.8765   11.5138 H         1 UNK         0.0000 
   6319 H(8)       27.0622   90.2414   12.8070 H         1 UNK         0.0000 
   6320 H(9)       25.3849   89.8219   13.0878 H         1 UNK         0.0000 
   6321 O(1)       30.7659  106.4590   13.4097 O.3       1 UNK         0.0000 
   6322 O(2)       28.7681  105.2189   19.4537 O.2       1 UNK         0.0000 
   6323 N(1)       30.9492  105.1683   18.8228 N.am      1 UNK         0.0000 
   6324 C(1)       30.8498  105.5272   17.4599 C.ar      1 UNK         0.0000 
   6325 C(2)       29.7676  106.2131   16.9087 C.ar      1 UNK         0.0000 
   6326 C(3)       29.7606  106.5218   15.5516 C.ar      1 UNK         0.0000 
   6327 C(4)       30.8306  106.1592   14.7376 C.ar      1 UNK         0.0000 
   6328 C(5)       31.9262  105.5008   15.2947 C.ar      1 UNK         0.0000 
   6329 C(6)       31.9315  105.1879   16.6465 C.ar      1 UNK         0.0000 
   6330 C(7)       29.9585  105.0154   19.7163 C.2       1 UNK         0.0000 
   6331 C(8)       30.3993  104.5828   21.0890 C.3       1 UNK         0.0000 
   6332 H(1)       28.9271  106.4987   17.5290 H         1 UNK         0.0000 
   6333 H(2)       28.9098  107.0517   15.1413 H         1 UNK         0.0000 
   6334 H(3)       32.7694  105.2307   14.6710 H         1 UNK         0.0000 
   6335 H(4)       32.7821  104.6748   17.0780 H         1 UNK         0.0000 
   6336 H(5)       31.6393  106.3985   13.0039 H         1 UNK         0.0000 
   6337 H(6)       31.8752  104.9235   19.1403 H         1 UNK         0.0000 
   6338 H(7)       30.3210  105.4073   21.7490 H         1 UNK         0.0000 
   6339 H(8)       31.3961  104.2257   21.1093 H         1 UNK         0.0000 
   6340 H(9)       29.7188  103.8597   21.4570 H         1 UNK         0.0000 
   6341 O(1)       35.1194   95.1375   16.5945 O.3       1 UNK         0.0000 
   6342 O(2)       37.1172  101.3063   16.7103 O.2       1 UNK         0.0000 
   6343 N(1)       34.9361  100.7019   16.5226 N.am      1 UNK         0.0000 
   6344 C(1)       35.0355   99.2934   16.5738 C.ar      1 UNK         0.0000 
   6345 C(2)       36.1177   98.6052   17.1221 C.ar      1 UNK         0.0000 
   6346 C(3)       36.1247   97.2134   17.1257 C.ar      1 UNK         0.0000 
   6347 C(4)       35.0547   96.4988   16.5933 C.ar      1 UNK         0.0000 
   6348 C(5)       33.9591   97.1867   16.0731 C.ar      1 UNK         0.0000 
   6349 C(6)       33.9538   98.5743   16.0644 C.ar      1 UNK         0.0000 
   6350 C(7)       35.9268  101.6072   16.5694 C.2       1 UNK         0.0000 
   6351 C(8)       35.4860  103.0413   16.4484 C.3       1 UNK         0.0000 
   6352 H(1)       36.9582   99.1477   17.5368 H         1 UNK         0.0000 
   6353 H(2)       36.9755   96.6969   17.5527 H         1 UNK         0.0000 
   6354 H(3)       33.1159   96.6375   15.6728 H         1 UNK         0.0000 
   6355 H(4)       33.1031   99.1078   15.6585 H         1 UNK         0.0000 
   6356 H(5)       34.2460   94.7549   16.4465 H         1 UNK         0.0000 
   6357 H(6)       34.0101  101.0653   16.3534 H         1 UNK         0.0000 
   6358 H(7)       35.5642  103.5044   17.3976 H         1 UNK         0.0000 
   6359 H(8)       34.4892  103.1394   16.1044 H         1 UNK         0.0000 
   6360 H(9)       36.1665  103.5590   15.8236 H         1 UNK         0.0000 
   6361 O(1)       30.7855   92.6529   22.6641 O.3       1 UNK         0.0000 
   6362 O(2)       32.7833   93.8929   16.6201 O.2       1 UNK         0.0000 
   6363 N(1)       30.6022   93.9436   17.2510 N.am      1 UNK         0.0000 
   6364 C(1)       30.7016   93.5847   18.6139 C.ar      1 UNK         0.0000 
   6365 C(2)       31.7838   92.8988   19.1651 C.ar      1 UNK         0.0000 
   6366 C(3)       31.7908   92.5900   20.5223 C.ar      1 UNK         0.0000 
   6367 C(4)       30.7208   92.9527   21.3362 C.ar      1 UNK         0.0000 
   6368 C(5)       29.6252   93.6110   20.7791 C.ar      1 UNK         0.0000 
   6369 C(6)       29.6199   93.9239   19.4273 C.ar      1 UNK         0.0000 
   6370 C(7)       31.5929   94.0964   16.3575 C.2       1 UNK         0.0000 
   6371 C(8)       31.1521   94.5290   14.9848 C.3       1 UNK         0.0000 
   6372 H(1)       32.6243   92.6131   18.5448 H         1 UNK         0.0000 
   6373 H(2)       32.6416   92.0601   20.9325 H         1 UNK         0.0000 
   6374 H(3)       28.7820   93.8811   21.4028 H         1 UNK         0.0000 
   6375 H(4)       28.7693   94.4370   18.9958 H         1 UNK         0.0000 
   6376 H(5)       29.9121   92.7134   23.0699 H         1 UNK         0.0000 
   6377 H(6)       29.6762   94.1883   16.9335 H         1 UNK         0.0000 
   6378 H(7)       31.2304   93.7046   14.3248 H         1 UNK         0.0000 
   6379 H(8)       30.1553   94.8862   14.9645 H         1 UNK         0.0000 
   6380 H(9)       31.8326   95.2521   14.6168 H         1 UNK         0.0000 
   6381 O(1)       33.5090  103.9743   19.4793 O.3       1 UNK         0.0000 
   6382 O(2)       31.5112   97.8056   19.3635 O.2       1 UNK         0.0000 
   6383 N(1)       33.6923   98.4100   19.5512 N.am      1 UNK         0.0000 
   6384 C(1)       33.5929   99.8184   19.5000 C.ar      1 UNK         0.0000 
   6385 C(2)       32.5107  100.5066   18.9517 C.ar      1 UNK         0.0000 
   6386 C(3)       32.5037  101.8984   18.9482 C.ar      1 UNK         0.0000 
   6387 C(4)       33.5737  102.6130   19.4805 C.ar      1 UNK         0.0000 
   6388 C(5)       34.6693  101.9251   20.0007 C.ar      1 UNK         0.0000 
   6389 C(6)       34.6746  100.5376   20.0094 C.ar      1 UNK         0.0000 
   6390 C(7)       32.7016   97.5047   19.5044 C.2       1 UNK         0.0000 
   6391 C(8)       33.1424   96.0705   19.6254 C.3       1 UNK         0.0000 
   6392 H(1)       31.6702   99.9641   18.5370 H         1 UNK         0.0000 
   6393 H(2)       31.6529  102.4149   18.5211 H         1 UNK         0.0000 
   6394 H(3)       35.5125  102.4744   20.4010 H         1 UNK         0.0000 
   6395 H(4)       35.5253  100.0041   20.4154 H         1 UNK         0.0000 
   6396 H(5)       34.3824  104.3570   19.6273 H         1 UNK         0.0000 
   6397 H(6)       34.6183   98.0465   19.7204 H         1 UNK         0.0000 
   6398 H(7)       33.0642   95.6074   18.6762 H         1 UNK         0.0000 
   6399 H(8)       34.1392   95.9724   19.9694 H         1 UNK         0.0000 
   6400 H(9)       32.4619   95.5529   20.2502 H         1 UNK         0.0000 
   6401 O(1)       29.1751   97.5076   20.5721 O.3       1 UNK         0.0000 
   6402 O(2)       27.1773   96.2675   26.6161 O.2       1 UNK         0.0000 
   6403 N(1)       29.3584   96.2169   25.9852 N.am      1 UNK         0.0000 
   6404 C(1)       29.2590   96.5758   24.6223 C.ar      1 UNK         0.0000 
   6405 C(2)       28.1768   97.2617   24.0711 C.ar      1 UNK         0.0000 
   6406 C(3)       28.1698   97.5705   22.7140 C.ar      1 UNK         0.0000 
   6407 C(4)       29.2398   97.2078   21.9000 C.ar      1 UNK         0.0000 
   6408 C(5)       30.3354   96.5494   22.4571 C.ar      1 UNK         0.0000 
   6409 C(6)       30.3407   96.2365   23.8089 C.ar      1 UNK         0.0000 
   6410 C(7)       28.3677   96.0641   26.8787 C.2       1 UNK         0.0000 
   6411 C(8)       28.8085   95.6314   28.2514 C.3       1 UNK         0.0000 
   6412 H(1)       27.3363   97.5474   24.6914 H         1 UNK         0.0000 
   6413 H(2)       27.3190   98.1004   22.3037 H         1 UNK         0.0000 
   6414 H(3)       31.1786   96.2793   21.8334 H         1 UNK         0.0000 
   6415 H(4)       31.1914   95.7235   24.2404 H         1 UNK         0.0000 
   6416 H(5)       30.0486   97.4471   20.1663 H         1 UNK         0.0000 
   6417 H(6)       30.2844   95.9722   26.3027 H         1 UNK         0.0000 
   6418 H(7)       28.7303   96.4559   28.9114 H         1 UNK         0.0000 
   6419 H(8)       29.8053   95.2743   28.2717 H         1 UNK         0.0000 
   6420 H(9)       28.1280   94.9083   28.6194 H         1 UNK         0.0000 
   6421 O(1)       28.0424  100.8684   23.7569 O.3       1 UNK         0.0000 
   6422 O(2)       30.0402  107.0372   23.8727 O.2       1 UNK         0.0000 
   6423 N(1)       27.8591  106.4328   23.6850 N.am      1 UNK         0.0000 
   6424 C(1)       27.9585  105.0244   23.7362 C.ar      1 UNK         0.0000 
   6425 C(2)       29.0407  104.3362   24.2845 C.ar      1 UNK         0.0000 
   6426 C(3)       29.0477  102.9444   24.2881 C.ar      1 UNK         0.0000 
   6427 C(4)       27.9777  102.2298   23.7557 C.ar      1 UNK         0.0000 
   6428 C(5)       26.8821  102.9177   23.2355 C.ar      1 UNK         0.0000 
   6429 C(6)       26.8768  104.3052   23.2268 C.ar      1 UNK         0.0000 
   6430 C(7)       28.8498  107.3381   23.7318 C.2       1 UNK         0.0000 
   6431 C(8)       28.4090  108.7723   23.6108 C.3       1 UNK         0.0000 
   6432 H(1)       29.8812  104.8787   24.6992 H         1 UNK         0.0000 
   6433 H(2)       29.8985  102.4279   24.7151 H         1 UNK         0.0000 
   6434 H(3)       26.0389  102.3684   22.8352 H         1 UNK         0.0000 
   6435 H(4)       26.0262  104.8387   22.8209 H         1 UNK         0.0000 
   6436 H(5)       27.1690  100.4858   23.6089 H         1 UNK         0.0000 
   6437 H(6)       26.9331  106.7963   23.5158 H         1 UNK         0.0000 
   6438 H(7)       28.4872  109.2354   24.5600 H         1 UNK         0.0000 
   6439 H(8)       27.4122  108.8704   23.2668 H         1 UNK         0.0000 
   6440 H(9)       29.0895  109.2899   22.9860 H         1 UNK         0.0000 
   6441 O(1)       32.3763   95.8732    8.3393 O.3       1 UNK         0.0000 
   6442 O(2)       34.3741   97.1133    2.2953 O.2       1 UNK         0.0000 
   6443 N(1)       32.1930   97.1640    2.9262 N.am      1 UNK         0.0000 
   6444 C(1)       32.2924   96.8050    4.2891 C.ar      1 UNK         0.0000 
   6445 C(2)       33.3746   96.1192    4.8403 C.ar      1 UNK         0.0000 
   6446 C(3)       33.3816   95.8104    6.1975 C.ar      1 UNK         0.0000 
   6447 C(4)       32.3116   96.1731    7.0114 C.ar      1 UNK         0.0000 
   6448 C(5)       31.2160   96.8314    6.4543 C.ar      1 UNK         0.0000 
   6449 C(6)       31.2107   97.1443    5.1025 C.ar      1 UNK         0.0000 
   6450 C(7)       33.1837   97.3168    2.0327 C.2       1 UNK         0.0000 
   6451 C(8)       32.7429   97.7494    0.6600 C.3       1 UNK         0.0000 
   6452 H(1)       34.2151   95.8335    4.2200 H         1 UNK         0.0000 
   6453 H(2)       34.2324   95.2805    6.6077 H         1 UNK         0.0000 
   6454 H(3)       30.3728   97.1015    7.0780 H         1 UNK         0.0000 
   6455 H(4)       30.3600   97.6574    4.6710 H         1 UNK         0.0000 
   6456 H(5)       31.5028   95.9338    8.7451 H         1 UNK         0.0000 
   6457 H(6)       31.2670   97.4087    2.6087 H         1 UNK         0.0000 
   6458 H(7)       32.8211   96.9250    0.0000 H         1 UNK         0.0000 
   6459 H(8)       31.7461   98.1066    0.6397 H         1 UNK         0.0000 
   6460 H(9)       33.4234   98.4725    0.2920 H         1 UNK         0.0000 
   6461 O(1)       35.0998  107.1947    5.1545 O.3       1 UNK         0.0000 
   6462 O(2)       33.1020  101.0260    5.0387 O.2       1 UNK         0.0000 
   6463 N(1)       35.2831  101.6304    5.2264 N.am      1 UNK         0.0000 
   6464 C(1)       35.1837  103.0388    5.1752 C.ar      1 UNK         0.0000 
   6465 C(2)       34.1015  103.7270    4.6269 C.ar      1 UNK         0.0000 
   6466 C(3)       34.0945  105.1188    4.6234 C.ar      1 UNK         0.0000 
   6467 C(4)       35.1645  105.8334    5.1557 C.ar      1 UNK         0.0000 
   6468 C(5)       36.2601  105.1455    5.6759 C.ar      1 UNK         0.0000 
   6469 C(6)       36.2654  103.7580    5.6846 C.ar      1 UNK         0.0000 
   6470 C(7)       34.2923  100.7251    5.1796 C.2       1 UNK         0.0000 
   6471 C(8)       34.7332   99.2909    5.3006 C.3       1 UNK         0.0000 
   6472 H(1)       33.2610  103.1845    4.2122 H         1 UNK         0.0000 
   6473 H(2)       33.2437  105.6353    4.1963 H         1 UNK         0.0000 
   6474 H(3)       37.1033  105.6948    6.0762 H         1 UNK         0.0000 
   6475 H(4)       37.1160  103.2245    6.0906 H         1 UNK         0.0000 
   6476 H(5)       35.9732  107.5773    5.3025 H         1 UNK         0.0000 
   6477 H(6)       36.2091  101.2669    5.3956 H         1 UNK         0.0000 
   6478 H(7)       34.6549   98.8278    4.3514 H         1 UNK         0.0000 
   6479 H(8)       35.7300   99.1928    5.6446 H         1 UNK         0.0000 
   6480 H(9)       34.0527   98.7733    5.9254 H         1 UNK         0.0000 
   6481 O(1)       32.3567  115.4103    6.2473 O.3       1 UNK         0.0000 
   6482 O(2)       30.3589  114.1703   12.2913 O.2       1 UNK         0.0000 
   6483 N(1)       32.5400  114.1196   11.6604 N.am      1 UNK         0.0000 
   6484 C(1)       32.4406  114.4785   10.2975 C.ar      1 UNK         0.0000 
   6485 C(2)       31.3584  115.1644    9.7463 C.ar      1 UNK         0.0000 
   6486 C(3)       31.3514  115.4732    8.3892 C.ar      1 UNK         0.0000 
   6487 C(4)       32.4214  115.1105    7.5752 C.ar      1 UNK         0.0000 
   6488 C(5)       33.5170  114.4521    8.1323 C.ar      1 UNK         0.0000 
   6489 C(6)       33.5223  114.1393    9.4841 C.ar      1 UNK         0.0000 
   6490 C(7)       31.5492  113.9668   12.5539 C.2       1 UNK         0.0000 
   6491 C(8)       31.9901  113.5342   13.9266 C.3       1 UNK         0.0000 
   6492 H(1)       30.5179  115.4501   10.3666 H         1 UNK         0.0000 
   6493 H(2)       30.5006  116.0031    7.9789 H         1 UNK         0.0000 
   6494 H(3)       34.3602  114.1821    7.5086 H         1 UNK         0.0000 
   6495 H(4)       34.3729  113.6262    9.9156 H         1 UNK         0.0000 
   6496 H(5)       33.2301  115.3498    5.8415 H         1 UNK         0.0000 
   6497 H(6)       33.4660  113.8749   11.9779 H         1 UNK         0.0000 
   6498 H(7)       31.9118  114.3586   14.5866 H         1 UNK         0.0000 
   6499 H(8)       32.9869  113.1770   13.9469 H         1 UNK         0.0000 
   6500 H(9)       31.3096  112.8111   14.2946 H         1 UNK         0.0000 
   6501 O(1)       36.7102  104.0888    9.4321 O.3       1 UNK         0.0000 
   6502 O(2)       38.7080  110.2576    9.5479 O.2       1 UNK         0.0000 
   6503 N(1)       36.5268  109.6532    9.3602 N.am      1 UNK         0.0000 
   6504 C(1)       36.6263  108.2448    9.4114 C.ar      1 UNK         0.0000 
   6505 C(2)       37.7085  107.5566    9.9597 C.ar      1 UNK         0.0000 
   6506 C(3)       37.7155  106.1648    9.9633 C.ar      1 UNK         0.0000 
   6507 C(4)       36.6455  105.4502    9.4309 C.ar      1 UNK         0.0000 
   6508 C(5)       35.5499  106.1381    8.9107 C.ar      1 UNK         0.0000 
   6509 C(6)       35.5446  107.5256    8.9020 C.ar      1 UNK         0.0000 
   6510 C(7)       37.5176  110.5585    9.4070 C.2       1 UNK         0.0000 
   6511 C(8)       37.0768  111.9927    9.2860 C.3       1 UNK         0.0000 
   6512 H(1)       38.5490  108.0991   10.3744 H         1 UNK         0.0000 
   6513 H(2)       38.5663  105.6483   10.3903 H         1 UNK         0.0000 
   6514 H(3)       34.7067  105.5888    8.5104 H         1 UNK         0.0000 
   6515 H(4)       34.6939  108.0591    8.4961 H         1 UNK         0.0000 
   6516 H(5)       35.8367  103.7062    9.2841 H         1 UNK         0.0000 
   6517 H(6)       35.6009  110.0167    9.1910 H         1 UNK         0.0000 
   6518 H(7)       37.1550  112.4558   10.2352 H         1 UNK         0.0000 
   6519 H(8)       36.0800  112.0908    8.9420 H         1 UNK         0.0000 
   6520 H(9)       37.7572  112.5103    8.6612 H         1 UNK         0.0000 
   6521 O(1)       26.8901  116.2865   15.5017 O.3       1 UNK         0.0000 
   6522 O(2)       28.8879  117.5266    9.4577 O.2       1 UNK         0.0000 
   6523 N(1)       26.7067  117.5773   10.0886 N.am      1 UNK         0.0000 
   6524 C(1)       26.8062  117.2183   11.4515 C.ar      1 UNK         0.0000 
   6525 C(2)       27.8883  116.5325   12.0027 C.ar      1 UNK         0.0000 
   6526 C(3)       27.8954  116.2237   13.3599 C.ar      1 UNK         0.0000 
   6527 C(4)       26.8254  116.5864   14.1738 C.ar      1 UNK         0.0000 
   6528 C(5)       25.7297  117.2447   13.6167 C.ar      1 UNK         0.0000 
   6529 C(6)       25.7244  117.5576   12.2649 C.ar      1 UNK         0.0000 
   6530 C(7)       27.6975  117.7301    9.1951 C.2       1 UNK         0.0000 
   6531 C(8)       27.2567  118.1627    7.8224 C.3       1 UNK         0.0000 
   6532 H(1)       28.7289  116.2468   11.3824 H         1 UNK         0.0000 
   6533 H(2)       28.7462  115.6938   13.7701 H         1 UNK         0.0000 
   6534 H(3)       24.8866  117.5148   14.2404 H         1 UNK         0.0000 
   6535 H(4)       24.8738  118.0707   11.8334 H         1 UNK         0.0000 
   6536 H(5)       26.0166  116.3471   15.9075 H         1 UNK         0.0000 
   6537 H(6)       25.7808  117.8220    9.7711 H         1 UNK         0.0000 
   6538 H(7)       27.3349  117.3383    7.1624 H         1 UNK         0.0000 
   6539 H(8)       26.2599  118.5199    7.8021 H         1 UNK         0.0000 
   6540 H(9)       27.9371  118.8858    7.4544 H         1 UNK         0.0000 
   6541 O(1)       28.0228  112.9257   12.3169 O.3       1 UNK         0.0000 
   6542 O(2)       26.0250  106.7569   12.2011 O.2       1 UNK         0.0000 
   6543 N(1)       28.2061  107.3613   12.3888 N.am      1 UNK         0.0000 
   6544 C(1)       28.1067  108.7698   12.3376 C.ar      1 UNK         0.0000 
   6545 C(2)       27.0245  109.4580   11.7893 C.ar      1 UNK         0.0000 
   6546 C(3)       27.0175  110.8498   11.7858 C.ar      1 UNK         0.0000 
   6547 C(4)       28.0875  111.5644   12.3181 C.ar      1 UNK         0.0000 
   6548 C(5)       29.1831  110.8765   12.8383 C.ar      1 UNK         0.0000 
   6549 C(6)       29.1884  109.4889   12.8470 C.ar      1 UNK         0.0000 
   6550 C(7)       27.2153  106.4560   12.3420 C.2       1 UNK         0.0000 
   6551 C(8)       27.6562  105.0219   12.4630 C.3       1 UNK         0.0000 
   6552 H(1)       26.1840  108.9154   11.3746 H         1 UNK         0.0000 
   6553 H(2)       26.1667  111.3663   11.3587 H         1 UNK         0.0000 
   6554 H(3)       30.0263  111.4257   13.2386 H         1 UNK         0.0000 
   6555 H(4)       30.0390  108.9554   13.2530 H         1 UNK         0.0000 
   6556 H(5)       28.8962  113.3083   12.4649 H         1 UNK         0.0000 
   6557 H(6)       29.1321  106.9979   12.5580 H         1 UNK         0.0000 
   6558 H(7)       27.5779  104.5588   11.5138 H         1 UNK         0.0000 
   6559 H(8)       28.6530  104.9238   12.8070 H         1 UNK         0.0000 
   6560 H(9)       26.9757  104.5042   13.0878 H         1 UNK         0.0000 
   6561 O(1)       32.3567  121.1413   13.4097 O.3       1 UNK         0.0000 
   6562 O(2)       30.3589  119.9012   19.4537 O.2       1 UNK         0.0000 
   6563 N(1)       32.5400  119.8506   18.8228 N.am      1 UNK         0.0000 
   6564 C(1)       32.4406  120.2095   17.4599 C.ar      1 UNK         0.0000 
   6565 C(2)       31.3584  120.8954   16.9087 C.ar      1 UNK         0.0000 
   6566 C(3)       31.3514  121.2042   15.5516 C.ar      1 UNK         0.0000 
   6567 C(4)       32.4214  120.8415   14.7376 C.ar      1 UNK         0.0000 
   6568 C(5)       33.5170  120.1831   15.2947 C.ar      1 UNK         0.0000 
   6569 C(6)       33.5223  119.8702   16.6465 C.ar      1 UNK         0.0000 
   6570 C(7)       31.5492  119.6978   19.7163 C.2       1 UNK         0.0000 
   6571 C(8)       31.9901  119.2651   21.0890 C.3       1 UNK         0.0000 
   6572 H(1)       30.5179  121.1810   17.5290 H         1 UNK         0.0000 
   6573 H(2)       30.5006  121.7341   15.1413 H         1 UNK         0.0000 
   6574 H(3)       34.3602  119.9130   14.6710 H         1 UNK         0.0000 
   6575 H(4)       34.3729  119.3572   17.0780 H         1 UNK         0.0000 
   6576 H(5)       33.2301  121.0808   13.0039 H         1 UNK         0.0000 
   6577 H(6)       33.4660  119.6059   19.1403 H         1 UNK         0.0000 
   6578 H(7)       31.9118  120.0896   21.7490 H         1 UNK         0.0000 
   6579 H(8)       32.9869  118.9080   21.1093 H         1 UNK         0.0000 
   6580 H(9)       31.3096  118.5420   21.4570 H         1 UNK         0.0000 
   6581 O(1)       36.7102  109.8198   16.5945 O.3       1 UNK         0.0000 
   6582 O(2)       38.7080  115.9886   16.7103 O.2       1 UNK         0.0000 
   6583 N(1)       36.5268  115.3842   16.5226 N.am      1 UNK         0.0000 
   6584 C(1)       36.6263  113.9758   16.5738 C.ar      1 UNK         0.0000 
   6585 C(2)       37.7085  113.2875   17.1221 C.ar      1 UNK         0.0000 
   6586 C(3)       37.7155  111.8957   17.1257 C.ar      1 UNK         0.0000 
   6587 C(4)       36.6455  111.1811   16.5933 C.ar      1 UNK         0.0000 
   6588 C(5)       35.5499  111.8690   16.0731 C.ar      1 UNK         0.0000 
   6589 C(6)       35.5446  113.2566   16.0644 C.ar      1 UNK         0.0000 
   6590 C(7)       37.5176  116.2895   16.5694 C.2       1 UNK         0.0000 
   6591 C(8)       37.0768  117.7236   16.4484 C.3       1 UNK         0.0000 
   6592 H(1)       38.5490  113.8301   17.5368 H         1 UNK         0.0000 
   6593 H(2)       38.5663  111.3793   17.5527 H         1 UNK         0.0000 
   6594 H(3)       34.7067  111.3198   15.6728 H         1 UNK         0.0000 
   6595 H(4)       34.6939  113.7901   15.6585 H         1 UNK         0.0000 
   6596 H(5)       35.8367  109.4372   16.4465 H         1 UNK         0.0000 
   6597 H(6)       35.6009  115.7477   16.3534 H         1 UNK         0.0000 
   6598 H(7)       37.1550  118.1867   17.3976 H         1 UNK         0.0000 
   6599 H(8)       36.0800  117.8218   16.1044 H         1 UNK         0.0000 
   6600 H(9)       37.7572  118.2413   15.8236 H         1 UNK         0.0000 
   6601 O(1)       32.3763  107.3352   22.6641 O.3       1 UNK         0.0000 
   6602 O(2)       34.3741  108.5753   16.6201 O.2       1 UNK         0.0000 
   6603 N(1)       32.1930  108.6259   17.2510 N.am      1 UNK         0.0000 
   6604 C(1)       32.2924  108.2670   18.6139 C.ar      1 UNK         0.0000 
   6605 C(2)       33.3746  107.5811   19.1651 C.ar      1 UNK         0.0000 
   6606 C(3)       33.3816  107.2723   20.5223 C.ar      1 UNK         0.0000 
   6607 C(4)       32.3116  107.6350   21.3362 C.ar      1 UNK         0.0000 
   6608 C(5)       31.2160  108.2934   20.7791 C.ar      1 UNK         0.0000 
   6609 C(6)       31.2107  108.6062   19.4273 C.ar      1 UNK         0.0000 
   6610 C(7)       33.1837  108.7787   16.3575 C.2       1 UNK         0.0000 
   6611 C(8)       32.7429  109.2114   14.9848 C.3       1 UNK         0.0000 
   6612 H(1)       34.2151  107.2954   18.5448 H         1 UNK         0.0000 
   6613 H(2)       34.2324  106.7424   20.9325 H         1 UNK         0.0000 
   6614 H(3)       30.3728  108.5635   21.4028 H         1 UNK         0.0000 
   6615 H(4)       30.3600  109.1193   18.9958 H         1 UNK         0.0000 
   6616 H(5)       31.5028  107.3957   23.0699 H         1 UNK         0.0000 
   6617 H(6)       31.2670  108.8706   16.9335 H         1 UNK         0.0000 
   6618 H(7)       32.8211  108.3869   14.3248 H         1 UNK         0.0000 
   6619 H(8)       31.7461  109.5685   14.9645 H         1 UNK         0.0000 
   6620 H(9)       33.4234  109.9345   14.6168 H         1 UNK         0.0000 
   6621 O(1)       35.0998  118.6567   19.4793 O.3       1 UNK         0.0000 
   6622 O(2)       33.1020  112.4879   19.3635 O.2       1 UNK         0.0000 
   6623 N(1)       35.2831  113.0923   19.5512 N.am      1 UNK         0.0000 
   6624 C(1)       35.1837  114.5007   19.5000 C.ar      1 UNK         0.0000 
   6625 C(2)       34.1015  115.1890   18.9517 C.ar      1 UNK         0.0000 
   6626 C(3)       34.0945  116.5808   18.9482 C.ar      1 UNK         0.0000 
   6627 C(4)       35.1645  117.2954   19.4805 C.ar      1 UNK         0.0000 
   6628 C(5)       36.2601  116.6074   20.0007 C.ar      1 UNK         0.0000 
   6629 C(6)       36.2654  115.2199   20.0094 C.ar      1 UNK         0.0000 
   6630 C(7)       34.2923  112.1870   19.5044 C.2       1 UNK         0.0000 
   6631 C(8)       34.7332  110.7529   19.6254 C.3       1 UNK         0.0000 
   6632 H(1)       33.2610  114.6464   18.5370 H         1 UNK         0.0000 
   6633 H(2)       33.2437  117.0972   18.5211 H         1 UNK         0.0000 
   6634 H(3)       37.1033  117.1567   20.4010 H         1 UNK         0.0000 
   6635 H(4)       37.1160  114.6864   20.4154 H         1 UNK         0.0000 
   6636 H(5)       35.9732  119.0393   19.6273 H         1 UNK         0.0000 
   6637 H(6)       36.2091  112.7288   19.7204 H         1 UNK         0.0000 
   6638 H(7)       34.6549  110.2898   18.6762 H         1 UNK         0.0000 
   6639 H(8)       35.7300  110.6547   19.9694 H         1 UNK         0.0000 
   6640 H(9)       34.0527  110.2352   20.2502 H         1 UNK         0.0000 
   6641 O(1)       30.7659  112.1899   20.5721 O.3       1 UNK         0.0000 
   6642 O(2)       28.7681  110.9499   26.6161 O.2       1 UNK         0.0000 
   6643 N(1)       30.9492  110.8992   25.9852 N.am      1 UNK         0.0000 
   6644 C(1)       30.8498  111.2581   24.6223 C.ar      1 UNK         0.0000 
   6645 C(2)       29.7676  111.9440   24.0711 C.ar      1 UNK         0.0000 
   6646 C(3)       29.7606  112.2528   22.7140 C.ar      1 UNK         0.0000 
   6647 C(4)       30.8306  111.8901   21.9000 C.ar      1 UNK         0.0000 
   6648 C(5)       31.9262  111.2318   22.4571 C.ar      1 UNK         0.0000 
   6649 C(6)       31.9315  110.9189   23.8089 C.ar      1 UNK         0.0000 
   6650 C(7)       29.9585  110.7464   26.8787 C.2       1 UNK         0.0000 
   6651 C(8)       30.3993  110.3138   28.2514 C.3       1 UNK         0.0000 
   6652 H(1)       28.9271  112.2297   24.6914 H         1 UNK         0.0000 
   6653 H(2)       28.9098  112.7827   22.3037 H         1 UNK         0.0000 
   6654 H(3)       32.7694  110.9617   21.8334 H         1 UNK         0.0000 
   6655 H(4)       32.7821  110.4058   24.2404 H         1 UNK         0.0000 
   6656 H(5)       31.6393  112.1294   20.1663 H         1 UNK         0.0000 
   6657 H(6)       31.8752  110.6545   26.3027 H         1 UNK         0.0000 
   6658 H(7)       30.3210  111.1382   28.9114 H         1 UNK         0.0000 
   6659 H(8)       31.3961  109.9566   28.2717 H         1 UNK         0.0000 
   6660 H(9)       29.7188  109.5907   28.6194 H         1 UNK         0.0000 
   6661 O(1)       29.6332  115.5508   23.7569 O.3       1 UNK         0.0000 
   6662 O(2)       31.6310  121.7196   23.8727 O.2       1 UNK         0.0000 
   6663 N(1)       29.4498  121.1152   23.6850 N.am      1 UNK         0.0000 
   6664 C(1)       29.5493  119.7067   23.7362 C.ar      1 UNK         0.0000 
   6665 C(2)       30.6315  119.0185   24.2845 C.ar      1 UNK         0.0000 
   6666 C(3)       30.6385  117.6267   24.2881 C.ar      1 UNK         0.0000 
   6667 C(4)       29.5685  116.9121   23.7557 C.ar      1 UNK         0.0000 
   6668 C(5)       28.4729  117.6000   23.2355 C.ar      1 UNK         0.0000 
   6669 C(6)       28.4675  118.9876   23.2268 C.ar      1 UNK         0.0000 
   6670 C(7)       30.4406  122.0205   23.7318 C.2       1 UNK         0.0000 
   6671 C(8)       29.9998  123.4546   23.6108 C.3       1 UNK         0.0000 
   6672 H(1)       31.4720  119.5610   24.6992 H         1 UNK         0.0000 
   6673 H(2)       31.4893  117.1102   24.7151 H         1 UNK         0.0000 
   6674 H(3)       27.6297  117.0508   22.8352 H         1 UNK         0.0000 
   6675 H(4)       27.6169  119.5211   22.8209 H         1 UNK         0.0000 
   6676 H(5)       28.7597  115.1682   23.6089 H         1 UNK         0.0000 
   6677 H(6)       28.5239  121.4786   23.5158 H         1 UNK         0.0000 
   6678 H(7)       30.0780  123.9177   24.5600 H         1 UNK         0.0000 
   6679 H(8)       29.0030  123.5527   23.2668 H         1 UNK         0.0000 
   6680 H(9)       30.6802  123.9723   22.9860 H         1 UNK         0.0000 
   6681 O(1)       33.9671  110.5556    8.3393 O.3       1 UNK         0.0000 
   6682 O(2)       35.9649  111.7957    2.2953 O.2       1 UNK         0.0000 
   6683 N(1)       33.7837  111.8463    2.9262 N.am      1 UNK         0.0000 
   6684 C(1)       33.8832  111.4874    4.2891 C.ar      1 UNK         0.0000 
   6685 C(2)       34.9653  110.8015    4.8403 C.ar      1 UNK         0.0000 
   6686 C(3)       34.9724  110.4927    6.1975 C.ar      1 UNK         0.0000 
   6687 C(4)       33.9024  110.8554    7.0114 C.ar      1 UNK         0.0000 
   6688 C(5)       32.8067  111.5138    6.4543 C.ar      1 UNK         0.0000 
   6689 C(6)       32.8014  111.8266    5.1025 C.ar      1 UNK         0.0000 
   6690 C(7)       34.7745  111.9991    2.0327 C.2       1 UNK         0.0000 
   6691 C(8)       34.3337  112.4318    0.6600 C.3       1 UNK         0.0000 
   6692 H(1)       35.8059  110.5158    4.2200 H         1 UNK         0.0000 
   6693 H(2)       35.8232  109.9628    6.6077 H         1 UNK         0.0000 
   6694 H(3)       31.9636  111.7839    7.0780 H         1 UNK         0.0000 
   6695 H(4)       31.9508  112.3397    4.6710 H         1 UNK         0.0000 
   6696 H(5)       33.0936  110.6161    8.7451 H         1 UNK         0.0000 
   6697 H(6)       32.8578  112.0910    2.6087 H         1 UNK         0.0000 
   6698 H(7)       34.4119  111.6073    0.0000 H         1 UNK         0.0000 
   6699 H(8)       33.3369  112.7889    0.6397 H         1 UNK         0.0000 
   6700 H(9)       35.0141  113.1549    0.2920 H         1 UNK         0.0000 
   6701 O(1)       36.6906  121.8771    5.1545 O.3       1 UNK         0.0000 
   6702 O(2)       34.6928  115.7083    5.0387 O.2       1 UNK         0.0000 
   6703 N(1)       36.8739  116.3127    5.2264 N.am      1 UNK         0.0000 
   6704 C(1)       36.7745  117.7211    5.1752 C.ar      1 UNK         0.0000 
   6705 C(2)       35.6923  118.4094    4.6269 C.ar      1 UNK         0.0000 
   6706 C(3)       35.6853  119.8012    4.6234 C.ar      1 UNK         0.0000 
   6707 C(4)       36.7553  120.5158    5.1557 C.ar      1 UNK         0.0000 
   6708 C(5)       37.8509  119.8278    5.6759 C.ar      1 UNK         0.0000 
   6709 C(6)       37.8562  118.4403    5.6846 C.ar      1 UNK         0.0000 
   6710 C(7)       35.8831  115.4074    5.1796 C.2       1 UNK         0.0000 
   6711 C(8)       36.3240  113.9733    5.3006 C.3       1 UNK         0.0000 
   6712 H(1)       34.8518  117.8668    4.2122 H         1 UNK         0.0000 
   6713 H(2)       34.8345  120.3176    4.1963 H         1 UNK         0.0000 
   6714 H(3)       38.6941  120.3771    6.0762 H         1 UNK         0.0000 
   6715 H(4)       38.7068  117.9068    6.0906 H         1 UNK         0.0000 
   6716 H(5)       37.5640  122.2597    5.3025 H         1 UNK         0.0000 
   6717 H(6)       37.7999  115.9492    5.3956 H         1 UNK         0.0000 
   6718 H(7)       36.2457  113.5102    4.3514 H         1 UNK         0.0000 
   6719 H(8)       37.3208  113.8751    5.6446 H         1 UNK         0.0000 
   6720 H(9)       35.6435  113.4556    5.9254 H         1 UNK         0.0000 
   6721 O(1)       33.9475  130.0927    6.2473 O.3       1 UNK         0.0000 
   6722 O(2)       31.9497  128.8526   12.2913 O.2       1 UNK         0.0000 
   6723 N(1)       34.1308  128.8020   11.6604 N.am      1 UNK         0.0000 
   6724 C(1)       34.0313  129.1609   10.2975 C.ar      1 UNK         0.0000 
   6725 C(2)       32.9492  129.8468    9.7463 C.ar      1 UNK         0.0000 
   6726 C(3)       32.9422  130.1555    8.3892 C.ar      1 UNK         0.0000 
   6727 C(4)       34.0122  129.7929    7.5752 C.ar      1 UNK         0.0000 
   6728 C(5)       35.1078  129.1345    8.1323 C.ar      1 UNK         0.0000 
   6729 C(6)       35.1131  128.8216    9.4841 C.ar      1 UNK         0.0000 
   6730 C(7)       33.1400  128.6491   12.5539 C.2       1 UNK         0.0000 
   6731 C(8)       33.5809  128.2165   13.9266 C.3       1 UNK         0.0000 
   6732 H(1)       32.1087  130.1324   10.3666 H         1 UNK         0.0000 
   6733 H(2)       32.0913  130.6854    7.9789 H         1 UNK         0.0000 
   6734 H(3)       35.9510  128.8644    7.5086 H         1 UNK         0.0000 
   6735 H(4)       35.9637  128.3085    9.9156 H         1 UNK         0.0000 
   6736 H(5)       34.8209  130.0322    5.8415 H         1 UNK         0.0000 
   6737 H(6)       35.0568  128.5572   11.9779 H         1 UNK         0.0000 
   6738 H(7)       33.5026  129.0410   14.5866 H         1 UNK         0.0000 
   6739 H(8)       34.5777  127.8594   13.9469 H         1 UNK         0.0000 
   6740 H(9)       32.9004  127.4934   14.2946 H         1 UNK         0.0000 
   6741 O(1)       38.3010  118.7712    9.4321 O.3       1 UNK         0.0000 
   6742 O(2)       40.2988  124.9400    9.5479 O.2       1 UNK         0.0000 
   6743 N(1)       38.1176  124.3356    9.3602 N.am      1 UNK         0.0000 
   6744 C(1)       38.2171  122.9271    9.4114 C.ar      1 UNK         0.0000 
   6745 C(2)       39.2992  122.2389    9.9597 C.ar      1 UNK         0.0000 
   6746 C(3)       39.3063  120.8471    9.9633 C.ar      1 UNK         0.0000 
   6747 C(4)       38.2362  120.1325    9.4309 C.ar      1 UNK         0.0000 
   6748 C(5)       37.1406  120.8204    8.9107 C.ar      1 UNK         0.0000 
   6749 C(6)       37.1353  122.2080    8.9020 C.ar      1 UNK         0.0000 
   6750 C(7)       39.1084  125.2409    9.4070 C.2       1 UNK         0.0000 
   6751 C(8)       38.6676  126.6750    9.2860 C.3       1 UNK         0.0000 
   6752 H(1)       40.1398  122.7814   10.3744 H         1 UNK         0.0000 
   6753 H(2)       40.1571  120.3306   10.3903 H         1 UNK         0.0000 
   6754 H(3)       36.2975  120.2712    8.5104 H         1 UNK         0.0000 
   6755 H(4)       36.2847  122.7415    8.4961 H         1 UNK         0.0000 
   6756 H(5)       37.4275  118.3886    9.2841 H         1 UNK         0.0000 
   6757 H(6)       37.1917  124.6990    9.1910 H         1 UNK         0.0000 
   6758 H(7)       38.7458  127.1381   10.2352 H         1 UNK         0.0000 
   6759 H(8)       37.6708  126.7731    8.9420 H         1 UNK         0.0000 
   6760 H(9)       39.3480  127.1927    8.6612 H         1 UNK         0.0000 
   6761 O(1)       28.4809  130.9689   15.5017 O.3       1 UNK         0.0000 
   6762 O(2)       30.4787  132.2090    9.4577 O.2       1 UNK         0.0000 
   6763 N(1)       28.2975  132.2596   10.0886 N.am      1 UNK         0.0000 
   6764 C(1)       28.3970  131.9007   11.4515 C.ar      1 UNK         0.0000 
   6765 C(2)       29.4791  131.2148   12.0027 C.ar      1 UNK         0.0000 
   6766 C(3)       29.4862  130.9060   13.3599 C.ar      1 UNK         0.0000 
   6767 C(4)       28.4161  131.2687   14.1738 C.ar      1 UNK         0.0000 
   6768 C(5)       27.3205  131.9271   13.6167 C.ar      1 UNK         0.0000 
   6769 C(6)       27.3152  132.2399   12.2649 C.ar      1 UNK         0.0000 
   6770 C(7)       29.2883  132.4124    9.1951 C.2       1 UNK         0.0000 
   6771 C(8)       28.8474  132.8451    7.8224 C.3       1 UNK         0.0000 
   6772 H(1)       30.3197  130.9291   11.3824 H         1 UNK         0.0000 
   6773 H(2)       30.3370  130.3761   13.7701 H         1 UNK         0.0000 
   6774 H(3)       26.4774  132.1972   14.2404 H         1 UNK         0.0000 
   6775 H(4)       26.4646  132.7530   11.8334 H         1 UNK         0.0000 
   6776 H(5)       27.6074  131.0294   15.9075 H         1 UNK         0.0000 
   6777 H(6)       27.3716  132.5043    9.7711 H         1 UNK         0.0000 
   6778 H(7)       28.9257  132.0206    7.1624 H         1 UNK         0.0000 
   6779 H(8)       27.8507  133.2022    7.8021 H         1 UNK         0.0000 
   6780 H(9)       29.5279  133.5682    7.4544 H         1 UNK         0.0000 
   6781 O(1)       29.6136  127.6080   12.3169 O.3       1 UNK         0.0000 
   6782 O(2)       27.6158  121.4393   12.2011 O.2       1 UNK         0.0000 
   6783 N(1)       29.7969  122.0437   12.3888 N.am      1 UNK         0.0000 
   6784 C(1)       29.6975  123.4521   12.3376 C.ar      1 UNK         0.0000 
   6785 C(2)       28.6153  124.1403   11.7893 C.ar      1 UNK         0.0000 
   6786 C(3)       28.6083  125.5321   11.7858 C.ar      1 UNK         0.0000 
   6787 C(4)       29.6783  126.2467   12.3181 C.ar      1 UNK         0.0000 
   6788 C(5)       30.7739  125.5588   12.8383 C.ar      1 UNK         0.0000 
   6789 C(6)       30.7792  124.1713   12.8470 C.ar      1 UNK         0.0000 
   6790 C(7)       28.8061  121.1383   12.3420 C.2       1 UNK         0.0000 
   6791 C(8)       29.2470  119.7042   12.4630 C.3       1 UNK         0.0000 
   6792 H(1)       27.7748  123.5978   11.3746 H         1 UNK         0.0000 
   6793 H(2)       27.7575  126.0486   11.3587 H         1 UNK         0.0000 
   6794 H(3)       31.6171  126.1081   13.2386 H         1 UNK         0.0000 
   6795 H(4)       31.6298  123.6378   13.2530 H         1 UNK         0.0000 
   6796 H(5)       30.4870  127.9906   12.4649 H         1 UNK         0.0000 
   6797 H(6)       30.7229  121.6802   12.5580 H         1 UNK         0.0000 
   6798 H(7)       29.1687  119.2411   11.5138 H         1 UNK         0.0000 
   6799 H(8)       30.2438  119.6061   12.8070 H         1 UNK         0.0000 
   6800 H(9)       28.5665  119.1866   13.0878 H         1 UNK         0.0000 
   6801 O(1)       33.9475  135.8236   13.4097 O.3       1 UNK         0.0000 
   6802 O(2)       31.9497  134.5836   19.4537 O.2       1 UNK         0.0000 
   6803 N(1)       34.1308  134.5329   18.8228 N.am      1 UNK         0.0000 
   6804 C(1)       34.0313  134.8918   17.4599 C.ar      1 UNK         0.0000 
   6805 C(2)       32.9492  135.5777   16.9087 C.ar      1 UNK         0.0000 
   6806 C(3)       32.9422  135.8865   15.5516 C.ar      1 UNK         0.0000 
   6807 C(4)       34.0122  135.5238   14.7376 C.ar      1 UNK         0.0000 
   6808 C(5)       35.1078  134.8654   15.2947 C.ar      1 UNK         0.0000 
   6809 C(6)       35.1131  134.5526   16.6465 C.ar      1 UNK         0.0000 
   6810 C(7)       33.1400  134.3801   19.7163 C.2       1 UNK         0.0000 
   6811 C(8)       33.5809  133.9475   21.0890 C.3       1 UNK         0.0000 
   6812 H(1)       32.1087  135.8634   17.5290 H         1 UNK         0.0000 
   6813 H(2)       32.0913  136.4164   15.1413 H         1 UNK         0.0000 
   6814 H(3)       35.9510  134.5954   14.6710 H         1 UNK         0.0000 
   6815 H(4)       35.9637  134.0395   17.0780 H         1 UNK         0.0000 
   6816 H(5)       34.8209  135.7631   13.0039 H         1 UNK         0.0000 
   6817 H(6)       35.0568  134.2882   19.1403 H         1 UNK         0.0000 
   6818 H(7)       33.5026  134.7719   21.7490 H         1 UNK         0.0000 
   6819 H(8)       34.5777  133.5903   21.1093 H         1 UNK         0.0000 
   6820 H(9)       32.9004  133.2244   21.4570 H         1 UNK         0.0000 
   6821 O(1)       38.3010  124.5021   16.5945 O.3       1 UNK         0.0000 
   6822 O(2)       40.2988  130.6709   16.7103 O.2       1 UNK         0.0000 
   6823 N(1)       38.1176  130.0665   16.5226 N.am      1 UNK         0.0000 
   6824 C(1)       38.2171  128.6581   16.5738 C.ar      1 UNK         0.0000 
   6825 C(2)       39.2992  127.9699   17.1221 C.ar      1 UNK         0.0000 
   6826 C(3)       39.3063  126.5781   17.1257 C.ar      1 UNK         0.0000 
   6827 C(4)       38.2362  125.8635   16.5933 C.ar      1 UNK         0.0000 
   6828 C(5)       37.1406  126.5514   16.0731 C.ar      1 UNK         0.0000 
   6829 C(6)       37.1353  127.9389   16.0644 C.ar      1 UNK         0.0000 
   6830 C(7)       39.1084  130.9718   16.5694 C.2       1 UNK         0.0000 
   6831 C(8)       38.6676  132.4060   16.4484 C.3       1 UNK         0.0000 
   6832 H(1)       40.1398  128.5124   17.5368 H         1 UNK         0.0000 
   6833 H(2)       40.1571  126.0616   17.5527 H         1 UNK         0.0000 
   6834 H(3)       36.2975  126.0021   15.6728 H         1 UNK         0.0000 
   6835 H(4)       36.2847  128.4724   15.6585 H         1 UNK         0.0000 
   6836 H(5)       37.4275  124.1195   16.4465 H         1 UNK         0.0000 
   6837 H(6)       37.1917  130.4300   16.3534 H         1 UNK         0.0000 
   6838 H(7)       38.7458  132.8691   17.3976 H         1 UNK         0.0000 
   6839 H(8)       37.6708  132.5041   16.1044 H         1 UNK         0.0000 
   6840 H(9)       39.3480  132.9236   15.8236 H         1 UNK         0.0000 
   6841 O(1)       33.9671  122.0175   22.6641 O.3       1 UNK         0.0000 
   6842 O(2)       35.9649  123.2576   16.6201 O.2       1 UNK         0.0000 
   6843 N(1)       33.7837  123.3082   17.2510 N.am      1 UNK         0.0000 
   6844 C(1)       33.8832  122.9493   18.6139 C.ar      1 UNK         0.0000 
   6845 C(2)       34.9653  122.2634   19.1651 C.ar      1 UNK         0.0000 
   6846 C(3)       34.9724  121.9547   20.5223 C.ar      1 UNK         0.0000 
   6847 C(4)       33.9024  122.3173   21.3362 C.ar      1 UNK         0.0000 
   6848 C(5)       32.8067  122.9757   20.7791 C.ar      1 UNK         0.0000 
   6849 C(6)       32.8014  123.2886   19.4273 C.ar      1 UNK         0.0000 
   6850 C(7)       34.7745  123.4611   16.3575 C.2       1 UNK         0.0000 
   6851 C(8)       34.3337  123.8937   14.9848 C.3       1 UNK         0.0000 
   6852 H(1)       35.8059  121.9778   18.5448 H         1 UNK         0.0000 
   6853 H(2)       35.8232  121.4248   20.9325 H         1 UNK         0.0000 
   6854 H(3)       31.9636  123.2458   21.4028 H         1 UNK         0.0000 
   6855 H(4)       31.9508  123.8016   18.9958 H         1 UNK         0.0000 
   6856 H(5)       33.0936  122.0780   23.0699 H         1 UNK         0.0000 
   6857 H(6)       32.8578  123.5530   16.9335 H         1 UNK         0.0000 
   6858 H(7)       34.4119  123.0692   14.3248 H         1 UNK         0.0000 
   6859 H(8)       33.3369  124.2508   14.9645 H         1 UNK         0.0000 
   6860 H(9)       35.0141  124.6168   14.6168 H         1 UNK         0.0000 
   6861 O(1)       36.6906  133.3390   19.4793 O.3       1 UNK         0.0000 
   6862 O(2)       34.6928  127.1702   19.3635 O.2       1 UNK         0.0000 
   6863 N(1)       36.8739  127.7746   19.5512 N.am      1 UNK         0.0000 
   6864 C(1)       36.7745  129.1831   19.5000 C.ar      1 UNK         0.0000 
   6865 C(2)       35.6923  129.8713   18.9517 C.ar      1 UNK         0.0000 
   6866 C(3)       35.6853  131.2631   18.9482 C.ar      1 UNK         0.0000 
   6867 C(4)       36.7553  131.9777   19.4805 C.ar      1 UNK         0.0000 
   6868 C(5)       37.8509  131.2898   20.0007 C.ar      1 UNK         0.0000 
   6869 C(6)       37.8562  129.9022   20.0094 C.ar      1 UNK         0.0000 
   6870 C(7)       35.8831  126.8693   19.5044 C.2       1 UNK         0.0000 
   6871 C(8)       36.3240  125.4352   19.6254 C.3       1 UNK         0.0000 
   6872 H(1)       34.8518  129.3287   18.5370 H         1 UNK         0.0000 
   6873 H(2)       34.8345  131.7796   18.5211 H         1 UNK         0.0000 
   6874 H(3)       38.6941  131.8390   20.4010 H         1 UNK         0.0000 
   6875 H(4)       38.7068  129.3687   20.4154 H         1 UNK         0.0000 
   6876 H(5)       37.5640  133.7216   19.6273 H         1 UNK         0.0000 
   6877 H(6)       37.7999  127.4112   19.7204 H         1 UNK         0.0000 
   6878 H(7)       36.2457  124.9721   18.6762 H         1 UNK         0.0000 
   6879 H(8)       37.3208  125.3370   19.9694 H         1 UNK         0.0000 
   6880 H(9)       35.6435  124.9175   20.2502 H         1 UNK         0.0000 
   6881 O(1)       32.3567  126.8723   20.5721 O.3       1 UNK         0.0000 
   6882 O(2)       30.3589  125.6322   26.6161 O.2       1 UNK         0.0000 
   6883 N(1)       32.5400  125.5816   25.9852 N.am      1 UNK         0.0000 
   6884 C(1)       32.4406  125.9405   24.6223 C.ar      1 UNK         0.0000 
   6885 C(2)       31.3584  126.6264   24.0711 C.ar      1 UNK         0.0000 
   6886 C(3)       31.3514  126.9351   22.7140 C.ar      1 UNK         0.0000 
   6887 C(4)       32.4214  126.5725   21.9000 C.ar      1 UNK         0.0000 
   6888 C(5)       33.5170  125.9141   22.4571 C.ar      1 UNK         0.0000 
   6889 C(6)       33.5223  125.6012   23.8089 C.ar      1 UNK         0.0000 
   6890 C(7)       31.5492  125.4287   26.8787 C.2       1 UNK         0.0000 
   6891 C(8)       31.9901  124.9961   28.2514 C.3       1 UNK         0.0000 
   6892 H(1)       30.5179  126.9120   24.6914 H         1 UNK         0.0000 
   6893 H(2)       30.5006  127.4650   22.3037 H         1 UNK         0.0000 
   6894 H(3)       34.3602  125.6440   21.8334 H         1 UNK         0.0000 
   6895 H(4)       34.3729  125.0881   24.2404 H         1 UNK         0.0000 
   6896 H(5)       33.2301  126.8118   20.1663 H         1 UNK         0.0000 
   6897 H(6)       33.4660  125.3368   26.3027 H         1 UNK         0.0000 
   6898 H(7)       31.9118  125.8206   28.9114 H         1 UNK         0.0000 
   6899 H(8)       32.9869  124.6390   28.2717 H         1 UNK         0.0000 
   6900 H(9)       31.3096  124.2730   28.6194 H         1 UNK         0.0000 
   6901 O(1)       31.2240  130.2331   23.7569 O.3       1 UNK         0.0000 
   6902 O(2)       33.2218  136.4019   23.8727 O.2       1 UNK         0.0000 
   6903 N(1)       31.0406  135.7975   23.6850 N.am      1 UNK         0.0000 
   6904 C(1)       31.1401  134.3890   23.7362 C.ar      1 UNK         0.0000 
   6905 C(2)       32.2222  133.7008   24.2845 C.ar      1 UNK         0.0000 
   6906 C(3)       32.2293  132.3090   24.2881 C.ar      1 UNK         0.0000 
   6907 C(4)       31.1592  131.5944   23.7557 C.ar      1 UNK         0.0000 
   6908 C(5)       30.0636  132.2823   23.2355 C.ar      1 UNK         0.0000 
   6909 C(6)       30.0583  133.6699   23.2268 C.ar      1 UNK         0.0000 
   6910 C(7)       32.0314  136.7028   23.7318 C.2       1 UNK         0.0000 
   6911 C(8)       31.5906  138.1369   23.6108 C.3       1 UNK         0.0000 
   6912 H(1)       33.0628  134.2434   24.6992 H         1 UNK         0.0000 
   6913 H(2)       33.0801  131.7926   24.7151 H         1 UNK         0.0000 
   6914 H(3)       29.2205  131.7331   22.8352 H         1 UNK         0.0000 
   6915 H(4)       29.2077  134.2034   22.8209 H         1 UNK         0.0000 
   6916 H(5)       30.3505  129.8505   23.6089 H         1 UNK         0.0000 
   6917 H(6)       30.1147  136.1610   23.5158 H         1 UNK         0.0000 
   6918 H(7)       31.6688  138.6000   24.5600 H         1 UNK         0.0000 
   6919 H(8)       30.5938  138.2351   23.2668 H         1 UNK         0.0000 
   6920 H(9)       32.2710  138.6546   22.9860 H         1 UNK         0.0000 
   6921 O(1)       35.5579  125.2379    8.3393 O.3       1 UNK         0.0000 
   6922 O(2)       37.5557  126.4780    2.2953 O.2       1 UNK         0.0000 
   6923 N(1)       35.3745  126.5286    2.9262 N.am      1 UNK         0.0000 
   6924 C(1)       35.4740  126.1697    4.2891 C.ar      1 UNK         0.0000 
   6925 C(2)       36.5561  125.4838    4.8403 C.ar      1 UNK         0.0000 
   6926 C(3)       36.5632  125.1751    6.1975 C.ar      1 UNK         0.0000 
   6927 C(4)       35.4931  125.5377    7.0114 C.ar      1 UNK         0.0000 
   6928 C(5)       34.3975  126.1961    6.4543 C.ar      1 UNK         0.0000 
   6929 C(6)       34.3922  126.5090    5.1025 C.ar      1 UNK         0.0000 
   6930 C(7)       36.3653  126.6815    2.0327 C.2       1 UNK         0.0000 
   6931 C(8)       35.9244  127.1141    0.6600 C.3       1 UNK         0.0000 
   6932 H(1)       37.3967  125.1982    4.2200 H         1 UNK         0.0000 
   6933 H(2)       37.4140  124.6452    6.6077 H         1 UNK         0.0000 
   6934 H(3)       33.5544  126.4662    7.0780 H         1 UNK         0.0000 
   6935 H(4)       33.5416  127.0220    4.6710 H         1 UNK         0.0000 
   6936 H(5)       34.6844  125.2984    8.7451 H         1 UNK         0.0000 
   6937 H(6)       34.4486  126.7734    2.6087 H         1 UNK         0.0000 
   6938 H(7)       36.0027  126.2896    0.0000 H         1 UNK         0.0000 
   6939 H(8)       34.9277  127.4712    0.6397 H         1 UNK         0.0000 
   6940 H(9)       36.6049  127.8372    0.2920 H         1 UNK         0.0000 
   6941 O(1)       38.2814  136.5594    5.1545 O.3       1 UNK         0.0000 
   6942 O(2)       36.2835  130.3906    5.0387 O.2       1 UNK         0.0000 
   6943 N(1)       38.4647  130.9950    5.2264 N.am      1 UNK         0.0000 
   6944 C(1)       38.3652  132.4035    5.1752 C.ar      1 UNK         0.0000 
   6945 C(2)       37.2831  133.0917    4.6269 C.ar      1 UNK         0.0000 
   6946 C(3)       37.2760  134.4835    4.6234 C.ar      1 UNK         0.0000 
   6947 C(4)       38.3461  135.1981    5.1557 C.ar      1 UNK         0.0000 
   6948 C(5)       39.4417  134.5102    5.6759 C.ar      1 UNK         0.0000 
   6949 C(6)       39.4470  133.1226    5.6846 C.ar      1 UNK         0.0000 
   6950 C(7)       37.4739  130.0897    5.1796 C.2       1 UNK         0.0000 
   6951 C(8)       37.9148  128.6556    5.3006 C.3       1 UNK         0.0000 
   6952 H(1)       36.4425  132.5491    4.2122 H         1 UNK         0.0000 
   6953 H(2)       36.4252  135.0000    4.1963 H         1 UNK         0.0000 
   6954 H(3)       40.2848  135.0594    6.0762 H         1 UNK         0.0000 
   6955 H(4)       40.2976  132.5891    6.0906 H         1 UNK         0.0000 
   6956 H(5)       39.1548  136.9420    5.3025 H         1 UNK         0.0000 
   6957 H(6)       39.3907  130.6316    5.3956 H         1 UNK         0.0000 
   6958 H(7)       37.8365  128.1925    4.3514 H         1 UNK         0.0000 
   6959 H(8)       38.9115  128.5574    5.6446 H         1 UNK         0.0000 
   6960 H(9)       37.2343  128.1379    5.9254 H         1 UNK         0.0000 
   6961 O(1)       35.5383  144.7750    6.2473 O.3       1 UNK         0.0000 
   6962 O(2)       33.5404  143.5349   12.2913 O.2       1 UNK         0.0000 
   6963 N(1)       35.7216  143.4843   11.6604 N.am      1 UNK         0.0000 
   6964 C(1)       35.6221  143.8432   10.2975 C.ar      1 UNK         0.0000 
   6965 C(2)       34.5400  144.5291    9.7463 C.ar      1 UNK         0.0000 
   6966 C(3)       34.5329  144.8378    8.3892 C.ar      1 UNK         0.0000 
   6967 C(4)       35.6030  144.4752    7.5752 C.ar      1 UNK         0.0000 
   6968 C(5)       36.6986  143.8168    8.1323 C.ar      1 UNK         0.0000 
   6969 C(6)       36.7039  143.5039    9.4841 C.ar      1 UNK         0.0000 
   6970 C(7)       34.7308  143.3315   12.5539 C.2       1 UNK         0.0000 
   6971 C(8)       35.1717  142.8988   13.9266 C.3       1 UNK         0.0000 
   6972 H(1)       33.6994  144.8147   10.3666 H         1 UNK         0.0000 
   6973 H(2)       33.6821  145.3678    7.9789 H         1 UNK         0.0000 
   6974 H(3)       37.5417  143.5467    7.5086 H         1 UNK         0.0000 
   6975 H(4)       37.5545  142.9909    9.9156 H         1 UNK         0.0000 
   6976 H(5)       36.4117  144.7145    5.8415 H         1 UNK         0.0000 
   6977 H(6)       36.6475  143.2395   11.9779 H         1 UNK         0.0000 
   6978 H(7)       35.0934  143.7233   14.5866 H         1 UNK         0.0000 
   6979 H(8)       36.1684  142.5417   13.9469 H         1 UNK         0.0000 
   6980 H(9)       34.4912  142.1757   14.2946 H         1 UNK         0.0000 
   6981 O(1)       39.8917  133.4535    9.4321 O.3       1 UNK         0.0000 
   6982 O(2)       41.8896  139.6223    9.5479 O.2       1 UNK         0.0000 
   6983 N(1)       39.7084  139.0179    9.3602 N.am      1 UNK         0.0000 
   6984 C(1)       39.8079  137.6094    9.4114 C.ar      1 UNK         0.0000 
   6985 C(2)       40.8900  136.9212    9.9597 C.ar      1 UNK         0.0000 
   6986 C(3)       40.8971  135.5294    9.9633 C.ar      1 UNK         0.0000 
   6987 C(4)       39.8270  134.8148    9.4309 C.ar      1 UNK         0.0000 
   6988 C(5)       38.7314  135.5027    8.9107 C.ar      1 UNK         0.0000 
   6989 C(6)       38.7261  136.8903    8.9020 C.ar      1 UNK         0.0000 
   6990 C(7)       40.6992  139.9232    9.4070 C.2       1 UNK         0.0000 
   6991 C(8)       40.2583  141.3573    9.2860 C.3       1 UNK         0.0000 
   6992 H(1)       41.7306  137.4638   10.3744 H         1 UNK         0.0000 
   6993 H(2)       41.7479  135.0130   10.3903 H         1 UNK         0.0000 
   6994 H(3)       37.8883  134.9535    8.5104 H         1 UNK         0.0000 
   6995 H(4)       37.8755  137.4238    8.4961 H         1 UNK         0.0000 
   6996 H(5)       39.0183  133.0709    9.2841 H         1 UNK         0.0000 
   6997 H(6)       38.7824  139.3814    9.1910 H         1 UNK         0.0000 
   6998 H(7)       40.3366  141.8204   10.2352 H         1 UNK         0.0000 
   6999 H(8)       39.2616  141.4555    8.9420 H         1 UNK         0.0000 
   7000 H(9)       40.9388  141.8750    8.6612 H         1 UNK         0.0000 
   7001 O(1)       30.0716  145.6512   15.5017 O.3       1 UNK         0.0000 
   7002 O(2)       32.0695  146.8913    9.4577 O.2       1 UNK         0.0000 
   7003 N(1)       29.8883  146.9419   10.0886 N.am      1 UNK         0.0000 
   7004 C(1)       29.9878  146.5830   11.4515 C.ar      1 UNK         0.0000 
   7005 C(2)       31.0699  145.8971   12.0027 C.ar      1 UNK         0.0000 
   7006 C(3)       31.0770  145.5884   13.3599 C.ar      1 UNK         0.0000 
   7007 C(4)       30.0069  145.9510   14.1738 C.ar      1 UNK         0.0000 
   7008 C(5)       28.9113  146.6094   13.6167 C.ar      1 UNK         0.0000 
   7009 C(6)       28.9060  146.9223   12.2649 C.ar      1 UNK         0.0000 
   7010 C(7)       30.8791  147.0948    9.1951 C.2       1 UNK         0.0000 
   7011 C(8)       30.4382  147.5274    7.8224 C.3       1 UNK         0.0000 
   7012 H(1)       31.9105  145.6115   11.3824 H         1 UNK         0.0000 
   7013 H(2)       31.9278  145.0585   13.7701 H         1 UNK         0.0000 
   7014 H(3)       28.0681  146.8795   14.2404 H         1 UNK         0.0000 
   7015 H(4)       28.0554  147.4353   11.8334 H         1 UNK         0.0000 
   7016 H(5)       29.1982  145.7117   15.9075 H         1 UNK         0.0000 
   7017 H(6)       28.9623  147.1867    9.7711 H         1 UNK         0.0000 
   7018 H(7)       30.5165  146.7029    7.1624 H         1 UNK         0.0000 
   7019 H(8)       29.4414  147.8845    7.8021 H         1 UNK         0.0000 
   7020 H(9)       31.1187  148.2505    7.4544 H         1 UNK         0.0000 
   7021 O(1)       31.2044  142.2904   12.3169 O.3       1 UNK         0.0000 
   7022 O(2)       29.2065  136.1216   12.2011 O.2       1 UNK         0.0000 
   7023 N(1)       31.3877  136.7260   12.3888 N.am      1 UNK         0.0000 
   7024 C(1)       31.2882  138.1344   12.3376 C.ar      1 UNK         0.0000 
   7025 C(2)       30.2061  138.8226   11.7893 C.ar      1 UNK         0.0000 
   7026 C(3)       30.1990  140.2145   11.7858 C.ar      1 UNK         0.0000 
   7027 C(4)       31.2691  140.9291   12.3181 C.ar      1 UNK         0.0000 
   7028 C(5)       32.3647  140.2411   12.8383 C.ar      1 UNK         0.0000 
   7029 C(6)       32.3700  138.8536   12.8470 C.ar      1 UNK         0.0000 
   7030 C(7)       30.3969  135.8207   12.3420 C.2       1 UNK         0.0000 
   7031 C(8)       30.8378  134.3866   12.4630 C.3       1 UNK         0.0000 
   7032 H(1)       29.3655  138.2801   11.3746 H         1 UNK         0.0000 
   7033 H(2)       29.3482  140.7309   11.3587 H         1 UNK         0.0000 
   7034 H(3)       33.2078  140.7904   13.2386 H         1 UNK         0.0000 
   7035 H(4)       33.2206  138.3201   13.2530 H         1 UNK         0.0000 
   7036 H(5)       32.0778  142.6730   12.4649 H         1 UNK         0.0000 
   7037 H(6)       32.3137  136.3625   12.5580 H         1 UNK         0.0000 
   7038 H(7)       30.7595  133.9235   11.5138 H         1 UNK         0.0000 
   7039 H(8)       31.8345  134.2884   12.8070 H         1 UNK         0.0000 
   7040 H(9)       30.1573  133.8689   13.0878 H         1 UNK         0.0000 
   7041 O(1)       35.5383  150.5060   13.4097 O.3       1 UNK         0.0000 
   7042 O(2)       33.5404  149.2659   19.4537 O.2       1 UNK         0.0000 
   7043 N(1)       35.7216  149.2153   18.8228 N.am      1 UNK         0.0000 
   7044 C(1)       35.6221  149.5742   17.4599 C.ar      1 UNK         0.0000 
   7045 C(2)       34.5400  150.2601   16.9087 C.ar      1 UNK         0.0000 
   7046 C(3)       34.5329  150.5688   15.5516 C.ar      1 UNK         0.0000 
   7047 C(4)       35.6030  150.2062   14.7376 C.ar      1 UNK         0.0000 
   7048 C(5)       36.6986  149.5478   15.2947 C.ar      1 UNK         0.0000 
   7049 C(6)       36.7039  149.2349   16.6465 C.ar      1 UNK         0.0000 
   7050 C(7)       34.7308  149.0624   19.7163 C.2       1 UNK         0.0000 
   7051 C(8)       35.1717  148.6298   21.0890 C.3       1 UNK         0.0000 
   7052 H(1)       33.6994  150.5457   17.5290 H         1 UNK         0.0000 
   7053 H(2)       33.6821  151.0987   15.1413 H         1 UNK         0.0000 
   7054 H(3)       37.5417  149.2777   14.6710 H         1 UNK         0.0000 
   7055 H(4)       37.5545  148.7218   17.0780 H         1 UNK         0.0000 
   7056 H(5)       36.4117  150.4455   13.0039 H         1 UNK         0.0000 
   7057 H(6)       36.6475  148.9705   19.1403 H         1 UNK         0.0000 
   7058 H(7)       35.0934  149.4542   21.7490 H         1 UNK         0.0000 
   7059 H(8)       36.1684  148.2727   21.1093 H         1 UNK         0.0000 
   7060 H(9)       34.4912  147.9067   21.4570 H         1 UNK         0.0000 
   7061 O(1)       39.8917  139.1845   16.5945 O.3       1 UNK         0.0000 
   7062 O(2)       41.8896  145.3533   16.7103 O.2       1 UNK         0.0000 
   7063 N(1)       39.7084  144.7489   16.5226 N.am      1 UNK         0.0000 
   7064 C(1)       39.8079  143.3404   16.5738 C.ar      1 UNK         0.0000 
   7065 C(2)       40.8900  142.6522   17.1221 C.ar      1 UNK         0.0000 
   7066 C(3)       40.8971  141.2604   17.1257 C.ar      1 UNK         0.0000 
   7067 C(4)       39.8270  140.5458   16.5933 C.ar      1 UNK         0.0000 
   7068 C(5)       38.7314  141.2337   16.0731 C.ar      1 UNK         0.0000 
   7069 C(6)       38.7261  142.6212   16.0644 C.ar      1 UNK         0.0000 
   7070 C(7)       40.6992  145.6542   16.5694 C.2       1 UNK         0.0000 
   7071 C(8)       40.2583  147.0883   16.4484 C.3       1 UNK         0.0000 
   7072 H(1)       41.7306  143.1947   17.5368 H         1 UNK         0.0000 
   7073 H(2)       41.7479  140.7439   17.5527 H         1 UNK         0.0000 
   7074 H(3)       37.8883  140.6845   15.6728 H         1 UNK         0.0000 
   7075 H(4)       37.8755  143.1548   15.6585 H         1 UNK         0.0000 
   7076 H(5)       39.0183  138.8019   16.4465 H         1 UNK         0.0000 
   7077 H(6)       38.7824  145.1123   16.3534 H         1 UNK         0.0000 
   7078 H(7)       40.3366  147.5514   17.3976 H         1 UNK         0.0000 
   7079 H(8)       39.2616  147.1864   16.1044 H         1 UNK         0.0000 
   7080 H(9)       40.9388  147.6060   15.8236 H         1 UNK         0.0000 
   7081 O(1)       35.5579  136.6998   22.6641 O.3       1 UNK         0.0000 
   7082 O(2)       37.5557  137.9399   16.6201 O.2       1 UNK         0.0000 
   7083 N(1)       35.3745  137.9906   17.2510 N.am      1 UNK         0.0000 
   7084 C(1)       35.4740  137.6316   18.6139 C.ar      1 UNK         0.0000 
   7085 C(2)       36.5561  136.9458   19.1651 C.ar      1 UNK         0.0000 
   7086 C(3)       36.5632  136.6370   20.5223 C.ar      1 UNK         0.0000 
   7087 C(4)       35.4931  136.9997   21.3362 C.ar      1 UNK         0.0000 
   7088 C(5)       34.3975  137.6580   20.7791 C.ar      1 UNK         0.0000 
   7089 C(6)       34.3922  137.9709   19.4273 C.ar      1 UNK         0.0000 
   7090 C(7)       36.3653  138.1434   16.3575 C.2       1 UNK         0.0000 
   7091 C(8)       35.9244  138.5760   14.9848 C.3       1 UNK         0.0000 
   7092 H(1)       37.3967  136.6601   18.5448 H         1 UNK         0.0000 
   7093 H(2)       37.4140  136.1071   20.9325 H         1 UNK         0.0000 
   7094 H(3)       33.5544  137.9281   21.4028 H         1 UNK         0.0000 
   7095 H(4)       33.5416  138.4840   18.9958 H         1 UNK         0.0000 
   7096 H(5)       34.6844  136.7604   23.0699 H         1 UNK         0.0000 
   7097 H(6)       34.4486  138.2353   16.9335 H         1 UNK         0.0000 
   7098 H(7)       36.0027  137.7516   14.3248 H         1 UNK         0.0000 
   7099 H(8)       34.9277  138.9332   14.9645 H         1 UNK         0.0000 
   7100 H(9)       36.6049  139.2991   14.6168 H         1 UNK         0.0000 
   7101 O(1)       38.2814  148.0213   19.4793 O.3       1 UNK         0.0000 
   7102 O(2)       36.2835  141.8526   19.3635 O.2       1 UNK         0.0000 
   7103 N(1)       38.4647  142.4570   19.5512 N.am      1 UNK         0.0000 
   7104 C(1)       38.3652  143.8654   19.5000 C.ar      1 UNK         0.0000 
   7105 C(2)       37.2831  144.5536   18.9517 C.ar      1 UNK         0.0000 
   7106 C(3)       37.2760  145.9454   18.9482 C.ar      1 UNK         0.0000 
   7107 C(4)       38.3461  146.6600   19.4805 C.ar      1 UNK         0.0000 
   7108 C(5)       39.4417  145.9721   20.0007 C.ar      1 UNK         0.0000 
   7109 C(6)       39.4470  144.5846   20.0094 C.ar      1 UNK         0.0000 
   7110 C(7)       37.4739  141.5516   19.5044 C.2       1 UNK         0.0000 
   7111 C(8)       37.9148  140.1175   19.6254 C.3       1 UNK         0.0000 
   7112 H(1)       36.4425  144.0111   18.5370 H         1 UNK         0.0000 
   7113 H(2)       36.4252  146.4619   18.5211 H         1 UNK         0.0000 
   7114 H(3)       40.2848  146.5214   20.4010 H         1 UNK         0.0000 
   7115 H(4)       40.2976  144.0510   20.4154 H         1 UNK         0.0000 
   7116 H(5)       39.1548  148.4039   19.6273 H         1 UNK         0.0000 
   7117 H(6)       39.3907  142.0935   19.7204 H         1 UNK         0.0000 
   7118 H(7)       37.8365  139.6544   18.6762 H         1 UNK         0.0000 
   7119 H(8)       38.9115  140.0194   19.9694 H         1 UNK         0.0000 
   7120 H(9)       37.2343  139.5998   20.2502 H         1 UNK         0.0000 
   7121 O(1)       33.9475  141.5546   20.5721 O.3       1 UNK         0.0000 
   7122 O(2)       31.9497  140.3145   26.6161 O.2       1 UNK         0.0000 
   7123 N(1)       34.1308  140.2639   25.9852 N.am      1 UNK         0.0000 
   7124 C(1)       34.0313  140.6228   24.6223 C.ar      1 UNK         0.0000 
   7125 C(2)       32.9492  141.3087   24.0711 C.ar      1 UNK         0.0000 
   7126 C(3)       32.9422  141.6174   22.7140 C.ar      1 UNK         0.0000 
   7127 C(4)       34.0122  141.2548   21.9000 C.ar      1 UNK         0.0000 
   7128 C(5)       35.1078  140.5964   22.4571 C.ar      1 UNK         0.0000 
   7129 C(6)       35.1131  140.2835   23.8089 C.ar      1 UNK         0.0000 
   7130 C(7)       33.1400  140.1111   26.8787 C.2       1 UNK         0.0000 
   7131 C(8)       33.5809  139.6784   28.2514 C.3       1 UNK         0.0000 
   7132 H(1)       32.1087  141.5943   24.6914 H         1 UNK         0.0000 
   7133 H(2)       32.0913  142.1474   22.3037 H         1 UNK         0.0000 
   7134 H(3)       35.9510  140.3263   21.8334 H         1 UNK         0.0000 
   7135 H(4)       35.9637  139.7705   24.2404 H         1 UNK         0.0000 
   7136 H(5)       34.8209  141.4941   20.1663 H         1 UNK         0.0000 
   7137 H(6)       35.0568  140.0191   26.3027 H         1 UNK         0.0000 
   7138 H(7)       33.5026  140.5029   28.9114 H         1 UNK         0.0000 
   7139 H(8)       34.5777  139.3213   28.2717 H         1 UNK         0.0000 
   7140 H(9)       32.9004  138.9553   28.6194 H         1 UNK         0.0000 
   7141 O(1)       32.8147  144.9154   23.7569 O.3       1 UNK         0.0000 
   7142 O(2)       34.8126  151.0842   23.8727 O.2       1 UNK         0.0000 
   7143 N(1)       32.6314  150.4798   23.6850 N.am      1 UNK         0.0000 
   7144 C(1)       32.7309  149.0714   23.7362 C.ar      1 UNK         0.0000 
   7145 C(2)       33.8130  148.3832   24.2845 C.ar      1 UNK         0.0000 
   7146 C(3)       33.8201  146.9914   24.2881 C.ar      1 UNK         0.0000 
   7147 C(4)       32.7500  146.2767   23.7557 C.ar      1 UNK         0.0000 
   7148 C(5)       31.6544  146.9647   23.2355 C.ar      1 UNK         0.0000 
   7149 C(6)       31.6491  148.3522   23.2268 C.ar      1 UNK         0.0000 
   7150 C(7)       33.6222  151.3851   23.7318 C.2       1 UNK         0.0000 
   7151 C(8)       33.1813  152.8193   23.6108 C.3       1 UNK         0.0000 
   7152 H(1)       34.6536  148.9257   24.6992 H         1 UNK         0.0000 
   7153 H(2)       34.6709  146.4749   24.7151 H         1 UNK         0.0000 
   7154 H(3)       30.8113  146.4154   22.8352 H         1 UNK         0.0000 
   7155 H(4)       30.7985  148.8857   22.8209 H         1 UNK         0.0000 
   7156 H(5)       31.9413  144.5328   23.6089 H         1 UNK         0.0000 
   7157 H(6)       31.7054  150.8433   23.5158 H         1 UNK         0.0000 
   7158 H(7)       33.2596  153.2824   24.5600 H         1 UNK         0.0000 
   7159 H(8)       32.1846  152.9174   23.2668 H         1 UNK         0.0000 
   7160 H(9)       33.8618  153.3369   22.9860 H         1 UNK         0.0000 
   7161 O(1)       37.1486  139.9202    8.3393 O.3       1 UNK         0.0000 
   7162 O(2)       39.1465  141.1603    2.2953 O.2       1 UNK         0.0000 
   7163 N(1)       36.9653  141.2110    2.9262 N.am      1 UNK         0.0000 
   7164 C(1)       37.0648  140.8520    4.2891 C.ar      1 UNK         0.0000 
   7165 C(2)       38.1469  140.1662    4.8403 C.ar      1 UNK         0.0000 
   7166 C(3)       38.1540  139.8574    6.1975 C.ar      1 UNK         0.0000 
   7167 C(4)       37.0839  140.2201    7.0114 C.ar      1 UNK         0.0000 
   7168 C(5)       35.9883  140.8784    6.4543 C.ar      1 UNK         0.0000 
   7169 C(6)       35.9830  141.1913    5.1025 C.ar      1 UNK         0.0000 
   7170 C(7)       37.9561  141.3638    2.0327 C.2       1 UNK         0.0000 
   7171 C(8)       37.5152  141.7964    0.6600 C.3       1 UNK         0.0000 
   7172 H(1)       38.9875  139.8805    4.2200 H         1 UNK         0.0000 
   7173 H(2)       39.0048  139.3275    6.6077 H         1 UNK         0.0000 
   7174 H(3)       35.1451  141.1485    7.0780 H         1 UNK         0.0000 
   7175 H(4)       35.1324  141.7044    4.6710 H         1 UNK         0.0000 
   7176 H(5)       36.2752  139.9808    8.7451 H         1 UNK         0.0000 
   7177 H(6)       36.0393  141.4557    2.6087 H         1 UNK         0.0000 
   7178 H(7)       37.5935  140.9720    0.0000 H         1 UNK         0.0000 
   7179 H(8)       36.5184  142.1536    0.6397 H         1 UNK         0.0000 
   7180 H(9)       38.1957  142.5195    0.2920 H         1 UNK         0.0000 
   7181 O(1)       39.8721  151.2417    5.1545 O.3       1 UNK         0.0000 
   7182 O(2)       37.8743  145.0729    5.0387 O.2       1 UNK         0.0000 
   7183 N(1)       40.0555  145.6774    5.2264 N.am      1 UNK         0.0000 
   7184 C(1)       39.9560  147.0858    5.1752 C.ar      1 UNK         0.0000 
   7185 C(2)       38.8739  147.7740    4.6269 C.ar      1 UNK         0.0000 
   7186 C(3)       38.8668  149.1658    4.6234 C.ar      1 UNK         0.0000 
   7187 C(4)       39.9369  149.8804    5.1557 C.ar      1 UNK         0.0000 
   7188 C(5)       41.0325  149.1925    5.6759 C.ar      1 UNK         0.0000 
   7189 C(6)       41.0378  147.8050    5.6846 C.ar      1 UNK         0.0000 
   7190 C(7)       39.0647  144.7720    5.1796 C.2       1 UNK         0.0000 
   7191 C(8)       39.5056  143.3379    5.3006 C.3       1 UNK         0.0000 
   7192 H(1)       38.0333  147.2315    4.2122 H         1 UNK         0.0000 
   7193 H(2)       38.0160  149.6823    4.1963 H         1 UNK         0.0000 
   7194 H(3)       41.8756  149.7418    6.0762 H         1 UNK         0.0000 
   7195 H(4)       41.8884  147.2714    6.0906 H         1 UNK         0.0000 
   7196 H(5)       40.7456  151.6243    5.3025 H         1 UNK         0.0000 
   7197 H(6)       40.9814  145.3139    5.3956 H         1 UNK         0.0000 
   7198 H(7)       39.4273  142.8748    4.3514 H         1 UNK         0.0000 
   7199 H(8)       40.5023  143.2398    5.6446 H         1 UNK         0.0000 
   7200 H(9)       38.8251  142.8202    5.9254 H         1 UNK         0.0000 
   7201 O(1)       28.2982   12.6340    6.2473 O.3       1 UNK         0.0000 
   7202 O(2)       26.3004   11.3940   12.2913 O.2       1 UNK         0.0000 
   7203 N(1)       28.4815   11.3433   11.6604 N.am      1 UNK         0.0000 
   7204 C(1)       28.3821   11.7022   10.2975 C.ar      1 UNK         0.0000 
   7205 C(2)       27.2999   12.3881    9.7463 C.ar      1 UNK         0.0000 
   7206 C(3)       27.2929   12.6969    8.3892 C.ar      1 UNK         0.0000 
   7207 C(4)       28.3629   12.3342    7.5752 C.ar      1 UNK         0.0000 
   7208 C(5)       29.4585   11.6758    8.1323 C.ar      1 UNK         0.0000 
   7209 C(6)       29.4638   11.3630    9.4841 C.ar      1 UNK         0.0000 
   7210 C(7)       27.4908   11.1905   12.5539 C.2       1 UNK         0.0000 
   7211 C(8)       27.9316   10.7579   13.9266 C.3       1 UNK         0.0000 
   7212 H(1)       26.4594   12.6738   10.3666 H         1 UNK         0.0000 
   7213 H(2)       26.4421   13.2268    7.9789 H         1 UNK         0.0000 
   7214 H(3)       30.3017   11.4057    7.5086 H         1 UNK         0.0000 
   7215 H(4)       30.3144   10.8499    9.9156 H         1 UNK         0.0000 
   7216 H(5)       29.1716   12.5735    5.8415 H         1 UNK         0.0000 
   7217 H(6)       29.4075   11.0986   11.9779 H         1 UNK         0.0000 
   7218 H(7)       27.8533   11.5823   14.5866 H         1 UNK         0.0000 
   7219 H(8)       28.9284   10.4007   13.9469 H         1 UNK         0.0000 
   7220 H(9)       27.2511   10.0347   14.2946 H         1 UNK         0.0000 
   7221 O(1)       32.6517    1.3125    9.4321 O.3       1 UNK         0.0000 
   7222 O(2)       34.6495    7.4813    9.5479 O.2       1 UNK         0.0000 
   7223 N(1)       32.4684    6.8769    9.3602 N.am      1 UNK         0.0000 
   7224 C(1)       32.5678    5.4685    9.4114 C.ar      1 UNK         0.0000 
   7225 C(2)       33.6500    4.7803    9.9597 C.ar      1 UNK         0.0000 
   7226 C(3)       33.6570    3.3885    9.9633 C.ar      1 UNK         0.0000 
   7227 C(4)       32.5870    2.6738    9.4309 C.ar      1 UNK         0.0000 
   7228 C(5)       31.4914    3.3618    8.9107 C.ar      1 UNK         0.0000 
   7229 C(6)       31.4861    4.7493    8.9020 C.ar      1 UNK         0.0000 
   7230 C(7)       33.4591    7.7822    9.4070 C.2       1 UNK         0.0000 
   7231 C(8)       33.0183    9.2163    9.2860 C.3       1 UNK         0.0000 
   7232 H(1)       34.4905    5.3228   10.3744 H         1 UNK         0.0000 
   7233 H(2)       34.5078    2.8720   10.3903 H         1 UNK         0.0000 
   7234 H(3)       30.6482    2.8125    8.5104 H         1 UNK         0.0000 
   7235 H(4)       30.6354    5.2828    8.4961 H         1 UNK         0.0000 
   7236 H(5)       31.7783    0.9299    9.2841 H         1 UNK         0.0000 
   7237 H(6)       31.5424    7.2404    9.1910 H         1 UNK         0.0000 
   7238 H(7)       33.0965    9.6795   10.2352 H         1 UNK         0.0000 
   7239 H(8)       32.0215    9.3145    8.9420 H         1 UNK         0.0000 
   7240 H(9)       33.6988    9.7340    8.6612 H         1 UNK         0.0000 
   7241 O(1)       22.8316   13.5102   15.5017 O.3       1 UNK         0.0000 
   7242 O(2)       24.8294   14.7503    9.4577 O.2       1 UNK         0.0000 
   7243 N(1)       22.6483   14.8009   10.0886 N.am      1 UNK         0.0000 
   7244 C(1)       22.7477   14.4420   11.4515 C.ar      1 UNK         0.0000 
   7245 C(2)       23.8299   13.7561   12.0027 C.ar      1 UNK         0.0000 
   7246 C(3)       23.8369   13.4474   13.3599 C.ar      1 UNK         0.0000 
   7247 C(4)       22.7669   13.8100   14.1738 C.ar      1 UNK         0.0000 
   7248 C(5)       21.6713   14.4684   13.6167 C.ar      1 UNK         0.0000 
   7249 C(6)       21.6660   14.7813   12.2649 C.ar      1 UNK         0.0000 
   7250 C(7)       23.6390   14.9538    9.1951 C.2       1 UNK         0.0000 
   7251 C(8)       23.1982   15.3864    7.8224 C.3       1 UNK         0.0000 
   7252 H(1)       24.6704   13.4705   11.3824 H         1 UNK         0.0000 
   7253 H(2)       24.6877   12.9175   13.7701 H         1 UNK         0.0000 
   7254 H(3)       20.8281   14.7385   14.2404 H         1 UNK         0.0000 
   7255 H(4)       20.8153   15.2944   11.8334 H         1 UNK         0.0000 
   7256 H(5)       21.9581   13.5707   15.9075 H         1 UNK         0.0000 
   7257 H(6)       21.7223   15.0457    9.7711 H         1 UNK         0.0000 
   7258 H(7)       23.2764   14.5620    7.1624 H         1 UNK         0.0000 
   7259 H(8)       22.2014   15.7436    7.8021 H         1 UNK         0.0000 
   7260 H(9)       23.8787   16.1095    7.4544 H         1 UNK         0.0000 
   7261 O(1)       23.9643   10.1494   12.3169 O.3       1 UNK         0.0000 
   7262 O(2)       21.9665    3.9806   12.2011 O.2       1 UNK         0.0000 
   7263 N(1)       24.1476    4.5850   12.3888 N.am      1 UNK         0.0000 
   7264 C(1)       24.0482    5.9935   12.3376 C.ar      1 UNK         0.0000 
   7265 C(2)       22.9660    6.6817   11.7893 C.ar      1 UNK         0.0000 
   7266 C(3)       22.9590    8.0735   11.7858 C.ar      1 UNK         0.0000 
   7267 C(4)       24.0290    8.7881   12.3181 C.ar      1 UNK         0.0000 
   7268 C(5)       25.1246    8.1002   12.8383 C.ar      1 UNK         0.0000 
   7269 C(6)       25.1299    6.7126   12.8470 C.ar      1 UNK         0.0000 
   7270 C(7)       23.1569    3.6797   12.3420 C.2       1 UNK         0.0000 
   7271 C(8)       23.5977    2.2456   12.4630 C.3       1 UNK         0.0000 
   7272 H(1)       22.1255    6.1391   11.3746 H         1 UNK         0.0000 
   7273 H(2)       22.1082    8.5900   11.3587 H         1 UNK         0.0000 
   7274 H(3)       25.9678    8.6494   13.2386 H         1 UNK         0.0000 
   7275 H(4)       25.9806    6.1791   13.2530 H         1 UNK         0.0000 
   7276 H(5)       24.8377   10.5320   12.4649 H         1 UNK         0.0000 
   7277 H(6)       25.0736    4.2215   12.5580 H         1 UNK         0.0000 
   7278 H(7)       23.5195    1.7825   11.5138 H         1 UNK         0.0000 
   7279 H(8)       24.5945    2.1474   12.8070 H         1 UNK         0.0000 
   7280 H(9)       22.9172    1.7279   13.0878 H         1 UNK         0.0000 
   7281 O(1)       28.2982   18.3650   13.4097 O.3       1 UNK         0.0000 
   7282 O(2)       26.3004   17.1249   19.4537 O.2       1 UNK         0.0000 
   7283 N(1)       28.4815   17.0743   18.8228 N.am      1 UNK         0.0000 
   7284 C(1)       28.3821   17.4332   17.4599 C.ar      1 UNK         0.0000 
   7285 C(2)       27.2999   18.1191   16.9087 C.ar      1 UNK         0.0000 
   7286 C(3)       27.2929   18.4278   15.5516 C.ar      1 UNK         0.0000 
   7287 C(4)       28.3629   18.0652   14.7376 C.ar      1 UNK         0.0000 
   7288 C(5)       29.4585   17.4068   15.2947 C.ar      1 UNK         0.0000 
   7289 C(6)       29.4638   17.0939   16.6465 C.ar      1 UNK         0.0000 
   7290 C(7)       27.4908   16.9215   19.7163 C.2       1 UNK         0.0000 
   7291 C(8)       27.9316   16.4888   21.0890 C.3       1 UNK         0.0000 
   7292 H(1)       26.4594   18.4047   17.5290 H         1 UNK         0.0000 
   7293 H(2)       26.4421   18.9577   15.1413 H         1 UNK         0.0000 
   7294 H(3)       30.3017   17.1367   14.6710 H         1 UNK         0.0000 
   7295 H(4)       30.3144   16.5809   17.0780 H         1 UNK         0.0000 
   7296 H(5)       29.1716   18.3045   13.0039 H         1 UNK         0.0000 
   7297 H(6)       29.4075   16.8295   19.1403 H         1 UNK         0.0000 
   7298 H(7)       27.8533   17.3133   21.7490 H         1 UNK         0.0000 
   7299 H(8)       28.9284   16.1317   21.1093 H         1 UNK         0.0000 
   7300 H(9)       27.2511   15.7657   21.4570 H         1 UNK         0.0000 
   7301 O(1)       32.6517    7.0435   16.5945 O.3       1 UNK         0.0000 
   7302 O(2)       34.6495   13.2123   16.7103 O.2       1 UNK         0.0000 
   7303 N(1)       32.4684   12.6079   16.5226 N.am      1 UNK         0.0000 
   7304 C(1)       32.5678   11.1994   16.5738 C.ar      1 UNK         0.0000 
   7305 C(2)       33.6500   10.5112   17.1221 C.ar      1 UNK         0.0000 
   7306 C(3)       33.6570    9.1194   17.1257 C.ar      1 UNK         0.0000 
   7307 C(4)       32.5870    8.4048   16.5933 C.ar      1 UNK         0.0000 
   7308 C(5)       31.4914    9.0927   16.0731 C.ar      1 UNK         0.0000 
   7309 C(6)       31.4861   10.4803   16.0644 C.ar      1 UNK         0.0000 
   7310 C(7)       33.4591   13.5132   16.5694 C.2       1 UNK         0.0000 
   7311 C(8)       33.0183   14.9473   16.4484 C.3       1 UNK         0.0000 
   7312 H(1)       34.4905   11.0538   17.5368 H         1 UNK         0.0000 
   7313 H(2)       34.5078    8.6029   17.5527 H         1 UNK         0.0000 
   7314 H(3)       30.6482    8.5435   15.6728 H         1 UNK         0.0000 
   7315 H(4)       30.6354   11.0138   15.6585 H         1 UNK         0.0000 
   7316 H(5)       31.7783    6.6609   16.4465 H         1 UNK         0.0000 
   7317 H(6)       31.5424   12.9713   16.3534 H         1 UNK         0.0000 
   7318 H(7)       33.0965   15.4104   17.3976 H         1 UNK         0.0000 
   7319 H(8)       32.0215   15.0455   16.1044 H         1 UNK         0.0000 
   7320 H(9)       33.6988   15.4650   15.8236 H         1 UNK         0.0000 
   7321 O(1)       28.3178    4.5589   22.6641 O.3       1 UNK         0.0000 
   7322 O(2)       30.3156    5.7989   16.6201 O.2       1 UNK         0.0000 
   7323 N(1)       28.1345    5.8496   17.2510 N.am      1 UNK         0.0000 
   7324 C(1)       28.2339    5.4907   18.6139 C.ar      1 UNK         0.0000 
   7325 C(2)       29.3161    4.8048   19.1651 C.ar      1 UNK         0.0000 
   7326 C(3)       29.3231    4.4960   20.5223 C.ar      1 UNK         0.0000 
   7327 C(4)       28.2531    4.8587   21.3362 C.ar      1 UNK         0.0000 
   7328 C(5)       27.1575    5.5171   20.7791 C.ar      1 UNK         0.0000 
   7329 C(6)       27.1522    5.8299   19.4273 C.ar      1 UNK         0.0000 
   7330 C(7)       29.1252    6.0024   16.3575 C.2       1 UNK         0.0000 
   7331 C(8)       28.6844    6.4350   14.9848 C.3       1 UNK         0.0000 
   7332 H(1)       30.1566    4.5191   18.5448 H         1 UNK         0.0000 
   7333 H(2)       30.1739    3.9661   20.9325 H         1 UNK         0.0000 
   7334 H(3)       26.3143    5.7872   21.4028 H         1 UNK         0.0000 
   7335 H(4)       26.3016    6.3430   18.9958 H         1 UNK         0.0000 
   7336 H(5)       27.4444    4.6194   23.0699 H         1 UNK         0.0000 
   7337 H(6)       27.2085    6.0943   16.9335 H         1 UNK         0.0000 
   7338 H(7)       28.7627    5.6106   14.3248 H         1 UNK         0.0000 
   7339 H(8)       27.6876    6.7922   14.9645 H         1 UNK         0.0000 
   7340 H(9)       29.3649    7.1582   14.6168 H         1 UNK         0.0000 
   7341 O(1)       31.0413   15.8804   19.4793 O.3       1 UNK         0.0000 
   7342 O(2)       29.0435    9.7116   19.3635 O.2       1 UNK         0.0000 
   7343 N(1)       31.2246   10.3160   19.5512 N.am      1 UNK         0.0000 
   7344 C(1)       31.1252   11.7244   19.5000 C.ar      1 UNK         0.0000 
   7345 C(2)       30.0430   12.4126   18.9517 C.ar      1 UNK         0.0000 
   7346 C(3)       30.0360   13.8044   18.9482 C.ar      1 UNK         0.0000 
   7347 C(4)       31.1060   14.5191   19.4805 C.ar      1 UNK         0.0000 
   7348 C(5)       32.2016   13.8311   20.0007 C.ar      1 UNK         0.0000 
   7349 C(6)       32.2069   12.4436   20.0094 C.ar      1 UNK         0.0000 
   7350 C(7)       30.2339    9.4107   19.5044 C.2       1 UNK         0.0000 
   7351 C(8)       30.6747    7.9766   19.6254 C.3       1 UNK         0.0000 
   7352 H(1)       29.2025   11.8701   18.5370 H         1 UNK         0.0000 
   7353 H(2)       29.1852   14.3209   18.5211 H         1 UNK         0.0000 
   7354 H(3)       33.0448   14.3804   20.4010 H         1 UNK         0.0000 
   7355 H(4)       33.0576   11.9101   20.4154 H         1 UNK         0.0000 
   7356 H(5)       31.9147   16.2630   19.6273 H         1 UNK         0.0000 
   7357 H(6)       32.1506    9.9525   19.7204 H         1 UNK         0.0000 
   7358 H(7)       30.5965    7.5134   18.6762 H         1 UNK         0.0000 
   7359 H(8)       31.6715    7.8784   19.9694 H         1 UNK         0.0000 
   7360 H(9)       29.9942    7.4589   20.2502 H         1 UNK         0.0000 
   7361 O(1)       26.7074    9.4136   20.5721 O.3       1 UNK         0.0000 
   7362 O(2)       24.7096    8.1736   26.6161 O.2       1 UNK         0.0000 
   7363 N(1)       26.8907    8.1229   25.9852 N.am      1 UNK         0.0000 
   7364 C(1)       26.7913    8.4818   24.6223 C.ar      1 UNK         0.0000 
   7365 C(2)       25.7091    9.1677   24.0711 C.ar      1 UNK         0.0000 
   7366 C(3)       25.7021    9.4765   22.7140 C.ar      1 UNK         0.0000 
   7367 C(4)       26.7721    9.1138   21.9000 C.ar      1 UNK         0.0000 
   7368 C(5)       27.8677    8.4554   22.4571 C.ar      1 UNK         0.0000 
   7369 C(6)       27.8730    8.1426   23.8089 C.ar      1 UNK         0.0000 
   7370 C(7)       25.9000    7.9701   26.8787 C.2       1 UNK         0.0000 
   7371 C(8)       26.3408    7.5375   28.2514 C.3       1 UNK         0.0000 
   7372 H(1)       24.8686    9.4534   24.6914 H         1 UNK         0.0000 
   7373 H(2)       24.8513   10.0064   22.3037 H         1 UNK         0.0000 
   7374 H(3)       28.7109    8.1853   21.8334 H         1 UNK         0.0000 
   7375 H(4)       28.7237    7.6295   24.2404 H         1 UNK         0.0000 
   7376 H(5)       27.5809    9.3531   20.1663 H         1 UNK         0.0000 
   7377 H(6)       27.8167    7.8782   26.3027 H         1 UNK         0.0000 
   7378 H(7)       26.2626    8.3619   28.9114 H         1 UNK         0.0000 
   7379 H(8)       27.3376    7.1803   28.2717 H         1 UNK         0.0000 
   7380 H(9)       25.6603    6.8143   28.6194 H         1 UNK         0.0000 
   7381 O(1)       25.5747   12.7745   23.7569 O.3       1 UNK         0.0000 
   7382 O(2)       27.5725   18.9433   23.8727 O.2       1 UNK         0.0000 
   7383 N(1)       25.3914   18.3389   23.6850 N.am      1 UNK         0.0000 
   7384 C(1)       25.4908   16.9304   23.7362 C.ar      1 UNK         0.0000 
   7385 C(2)       26.5730   16.2422   24.2845 C.ar      1 UNK         0.0000 
   7386 C(3)       26.5800   14.8504   24.2881 C.ar      1 UNK         0.0000 
   7387 C(4)       25.5100   14.1358   23.7557 C.ar      1 UNK         0.0000 
   7388 C(5)       24.4144   14.8237   23.2355 C.ar      1 UNK         0.0000 
   7389 C(6)       24.4091   16.2112   23.2268 C.ar      1 UNK         0.0000 
   7390 C(7)       26.3821   19.2442   23.7318 C.2       1 UNK         0.0000 
   7391 C(8)       25.9413   20.6783   23.6108 C.3       1 UNK         0.0000 
   7392 H(1)       27.4135   16.7847   24.6992 H         1 UNK         0.0000 
   7393 H(2)       27.4308   14.3339   24.7151 H         1 UNK         0.0000 
   7394 H(3)       23.5712   14.2744   22.8352 H         1 UNK         0.0000 
   7395 H(4)       23.5584   16.7448   22.8209 H         1 UNK         0.0000 
   7396 H(5)       24.7013   12.3919   23.6089 H         1 UNK         0.0000 
   7397 H(6)       24.4654   18.7023   23.5158 H         1 UNK         0.0000 
   7398 H(7)       26.0195   21.1414   24.5600 H         1 UNK         0.0000 
   7399 H(8)       24.9445   20.7764   23.2668 H         1 UNK         0.0000 
   7400 H(9)       26.6218   21.1960   22.9860 H         1 UNK         0.0000 
   7401 O(1)       29.9086    7.7793    8.3393 O.3       1 UNK         0.0000 
   7402 O(2)       31.9064    9.0193    2.2953 O.2       1 UNK         0.0000 
   7403 N(1)       29.7253    9.0700    2.9262 N.am      1 UNK         0.0000 
   7404 C(1)       29.8247    8.7111    4.2891 C.ar      1 UNK         0.0000 
   7405 C(2)       30.9069    8.0252    4.8403 C.ar      1 UNK         0.0000 
   7406 C(3)       30.9139    7.7164    6.1975 C.ar      1 UNK         0.0000 
   7407 C(4)       29.8439    8.0791    7.0114 C.ar      1 UNK         0.0000 
   7408 C(5)       28.7483    8.7375    6.4543 C.ar      1 UNK         0.0000 
   7409 C(6)       28.7430    9.0503    5.1025 C.ar      1 UNK         0.0000 
   7410 C(7)       30.7160    9.2228    2.0327 C.2       1 UNK         0.0000 
   7411 C(8)       30.2752    9.6554    0.6600 C.3       1 UNK         0.0000 
   7412 H(1)       31.7474    7.7395    4.2200 H         1 UNK         0.0000 
   7413 H(2)       31.7647    7.1865    6.6077 H         1 UNK         0.0000 
   7414 H(3)       27.9051    9.0076    7.0780 H         1 UNK         0.0000 
   7415 H(4)       27.8923    9.5634    4.6710 H         1 UNK         0.0000 
   7416 H(5)       29.0351    7.8398    8.7451 H         1 UNK         0.0000 
   7417 H(6)       28.7993    9.3147    2.6087 H         1 UNK         0.0000 
   7418 H(7)       30.3534    8.8310    0.0000 H         1 UNK         0.0000 
   7419 H(8)       29.2784   10.0126    0.6397 H         1 UNK         0.0000 
   7420 H(9)       30.9557   10.3786    0.2920 H         1 UNK         0.0000 
   7421 O(1)       32.6321   19.1008    5.1545 O.3       1 UNK         0.0000 
   7422 O(2)       30.6343   12.9320    5.0387 O.2       1 UNK         0.0000 
   7423 N(1)       32.8154   13.5364    5.2264 N.am      1 UNK         0.0000 
   7424 C(1)       32.7160   14.9448    5.1752 C.ar      1 UNK         0.0000 
   7425 C(2)       31.6338   15.6330    4.6269 C.ar      1 UNK         0.0000 
   7426 C(3)       31.6268   17.0248    4.6234 C.ar      1 UNK         0.0000 
   7427 C(4)       32.6968   17.7395    5.1557 C.ar      1 UNK         0.0000 
   7428 C(5)       33.7924   17.0515    5.6759 C.ar      1 UNK         0.0000 
   7429 C(6)       33.7977   15.6640    5.6846 C.ar      1 UNK         0.0000 
   7430 C(7)       31.8246   12.6311    5.1796 C.2       1 UNK         0.0000 
   7431 C(8)       32.2655   11.1969    5.3006 C.3       1 UNK         0.0000 
   7432 H(1)       30.7933   15.0905    4.2122 H         1 UNK         0.0000 
   7433 H(2)       30.7760   17.5413    4.1963 H         1 UNK         0.0000 
   7434 H(3)       34.6356   17.6008    6.0762 H         1 UNK         0.0000 
   7435 H(4)       34.6483   15.1305    6.0906 H         1 UNK         0.0000 
   7436 H(5)       33.5055   19.4834    5.3025 H         1 UNK         0.0000 
   7437 H(6)       33.7414   13.1729    5.3956 H         1 UNK         0.0000 
   7438 H(7)       32.1872   10.7338    4.3514 H         1 UNK         0.0000 
   7439 H(8)       33.2623   11.0988    5.6446 H         1 UNK         0.0000 
   7440 H(9)       31.5850   10.6793    5.9254 H         1 UNK         0.0000 
   7441 O(1)       29.8890   27.3164    6.2473 O.3       1 UNK         0.0000 
   7442 O(2)       27.8912   26.0763   12.2913 O.2       1 UNK         0.0000 
   7443 N(1)       30.0723   26.0256   11.6604 N.am      1 UNK         0.0000 
   7444 C(1)       29.9729   26.3846   10.2975 C.ar      1 UNK         0.0000 
   7445 C(2)       28.8907   27.0704    9.7463 C.ar      1 UNK         0.0000 
   7446 C(3)       28.8837   27.3792    8.3892 C.ar      1 UNK         0.0000 
   7447 C(4)       29.9537   27.0165    7.5752 C.ar      1 UNK         0.0000 
   7448 C(5)       31.0493   26.3582    8.1323 C.ar      1 UNK         0.0000 
   7449 C(6)       31.0546   26.0453    9.4841 C.ar      1 UNK         0.0000 
   7450 C(7)       29.0815   25.8728   12.5539 C.2       1 UNK         0.0000 
   7451 C(8)       29.5224   25.4402   13.9266 C.3       1 UNK         0.0000 
   7452 H(1)       28.0502   27.3561   10.3666 H         1 UNK         0.0000 
   7453 H(2)       28.0329   27.9091    7.9789 H         1 UNK         0.0000 
   7454 H(3)       31.8925   26.0881    7.5086 H         1 UNK         0.0000 
   7455 H(4)       31.9052   25.5322    9.9156 H         1 UNK         0.0000 
   7456 H(5)       30.7624   27.2558    5.8415 H         1 UNK         0.0000 
   7457 H(6)       30.9983   25.7809   11.9779 H         1 UNK         0.0000 
   7458 H(7)       29.4441   26.2646   14.5866 H         1 UNK         0.0000 
   7459 H(8)       30.5192   25.0830   13.9469 H         1 UNK         0.0000 
   7460 H(9)       28.8419   24.7171   14.2946 H         1 UNK         0.0000 
   7461 O(1)       34.2425   15.9949    9.4321 O.3       1 UNK         0.0000 
   7462 O(2)       36.2403   22.1637    9.5479 O.2       1 UNK         0.0000 
   7463 N(1)       34.0591   21.5592    9.3602 N.am      1 UNK         0.0000 
   7464 C(1)       34.1586   20.1508    9.4114 C.ar      1 UNK         0.0000 
   7465 C(2)       35.2408   19.4626    9.9597 C.ar      1 UNK         0.0000 
   7466 C(3)       35.2478   18.0708    9.9633 C.ar      1 UNK         0.0000 
   7467 C(4)       34.1778   17.3562    9.4309 C.ar      1 UNK         0.0000 
   7468 C(5)       33.0822   18.0441    8.9107 C.ar      1 UNK         0.0000 
   7469 C(6)       33.0768   19.4316    8.9020 C.ar      1 UNK         0.0000 
   7470 C(7)       35.0499   22.4646    9.4070 C.2       1 UNK         0.0000 
   7471 C(8)       34.6091   23.8987    9.2860 C.3       1 UNK         0.0000 
   7472 H(1)       36.0813   20.0051   10.3744 H         1 UNK         0.0000 
   7473 H(2)       36.0986   17.5543   10.3903 H         1 UNK         0.0000 
   7474 H(3)       32.2390   17.4948    8.5104 H         1 UNK         0.0000 
   7475 H(4)       32.2262   19.9652    8.4961 H         1 UNK         0.0000 
   7476 H(5)       33.3690   15.6123    9.2841 H         1 UNK         0.0000 
   7477 H(6)       33.1332   21.9227    9.1910 H         1 UNK         0.0000 
   7478 H(7)       34.6873   24.3618   10.2352 H         1 UNK         0.0000 
   7479 H(8)       33.6123   23.9968    8.9420 H         1 UNK         0.0000 
   7480 H(9)       35.2895   24.4164    8.6612 H         1 UNK         0.0000 
   7481 O(1)       24.4224   28.1926   15.5017 O.3       1 UNK         0.0000 
   7482 O(2)       26.4202   29.4326    9.4577 O.2       1 UNK         0.0000 
   7483 N(1)       24.2390   29.4833   10.0886 N.am      1 UNK         0.0000 
   7484 C(1)       24.3385   29.1244   11.4515 C.ar      1 UNK         0.0000 
   7485 C(2)       25.4206   28.4385   12.0027 C.ar      1 UNK         0.0000 
   7486 C(3)       25.4277   28.1297   13.3599 C.ar      1 UNK         0.0000 
   7487 C(4)       24.3577   28.4924   14.1738 C.ar      1 UNK         0.0000 
   7488 C(5)       23.2620   29.1508   13.6167 C.ar      1 UNK         0.0000 
   7489 C(6)       23.2567   29.4636   12.2649 C.ar      1 UNK         0.0000 
   7490 C(7)       25.2298   29.6361    9.1951 C.2       1 UNK         0.0000 
   7491 C(8)       24.7890   30.0687    7.8224 C.3       1 UNK         0.0000 
   7492 H(1)       26.2612   28.1528   11.3824 H         1 UNK         0.0000 
   7493 H(2)       26.2785   27.5998   13.7701 H         1 UNK         0.0000 
   7494 H(3)       22.4189   29.4209   14.2404 H         1 UNK         0.0000 
   7495 H(4)       22.4061   29.9767   11.8334 H         1 UNK         0.0000 
   7496 H(5)       23.5489   28.2531   15.9075 H         1 UNK         0.0000 
   7497 H(6)       23.3131   29.7280    9.7711 H         1 UNK         0.0000 
   7498 H(7)       24.8672   29.2443    7.1624 H         1 UNK         0.0000 
   7499 H(8)       23.7922   30.4259    7.8021 H         1 UNK         0.0000 
   7500 H(9)       25.4694   30.7919    7.4544 H         1 UNK         0.0000 
   7501 O(1)       25.5551   24.8317   12.3169 O.3       1 UNK         0.0000 
   7502 O(2)       23.5573   18.6629   12.2011 O.2       1 UNK         0.0000 
   7503 N(1)       25.7384   19.2673   12.3888 N.am      1 UNK         0.0000 
   7504 C(1)       25.6390   20.6758   12.3376 C.ar      1 UNK         0.0000 
   7505 C(2)       24.5568   21.3640   11.7893 C.ar      1 UNK         0.0000 
   7506 C(3)       24.5498   22.7558   11.7858 C.ar      1 UNK         0.0000 
   7507 C(4)       25.6198   23.4704   12.3181 C.ar      1 UNK         0.0000 
   7508 C(5)       26.7154   22.7825   12.8383 C.ar      1 UNK         0.0000 
   7509 C(6)       26.7207   21.3950   12.8470 C.ar      1 UNK         0.0000 
   7510 C(7)       24.7476   18.3620   12.3420 C.2       1 UNK         0.0000 
   7511 C(8)       25.1885   16.9279   12.4630 C.3       1 UNK         0.0000 
   7512 H(1)       23.7163   20.8215   11.3746 H         1 UNK         0.0000 
   7513 H(2)       23.6990   23.2723   11.3587 H         1 UNK         0.0000 
   7514 H(3)       27.5586   23.3317   13.2386 H         1 UNK         0.0000 
   7515 H(4)       27.5713   20.8614   13.2530 H         1 UNK         0.0000 
   7516 H(5)       26.4285   25.2143   12.4649 H         1 UNK         0.0000 
   7517 H(6)       26.6644   18.9039   12.5580 H         1 UNK         0.0000 
   7518 H(7)       25.1102   16.4648   11.5138 H         1 UNK         0.0000 
   7519 H(8)       26.1853   16.8298   12.8070 H         1 UNK         0.0000 
   7520 H(9)       24.5080   16.4102   13.0878 H         1 UNK         0.0000 
   7521 O(1)       29.8890   33.0473   13.4097 O.3       1 UNK         0.0000 
   7522 O(2)       27.8912   31.8072   19.4537 O.2       1 UNK         0.0000 
   7523 N(1)       30.0723   31.7566   18.8228 N.am      1 UNK         0.0000 
   7524 C(1)       29.9729   32.1155   17.4599 C.ar      1 UNK         0.0000 
   7525 C(2)       28.8907   32.8014   16.9087 C.ar      1 UNK         0.0000 
   7526 C(3)       28.8837   33.1102   15.5516 C.ar      1 UNK         0.0000 
   7527 C(4)       29.9537   32.7475   14.7376 C.ar      1 UNK         0.0000 
   7528 C(5)       31.0493   32.0891   15.2947 C.ar      1 UNK         0.0000 
   7529 C(6)       31.0546   31.7763   16.6465 C.ar      1 UNK         0.0000 
   7530 C(7)       29.0815   31.6038   19.7163 C.2       1 UNK         0.0000 
   7531 C(8)       29.5224   31.1711   21.0890 C.3       1 UNK         0.0000 
   7532 H(1)       28.0502   33.0871   17.5290 H         1 UNK         0.0000 
   7533 H(2)       28.0329   33.6401   15.1413 H         1 UNK         0.0000 
   7534 H(3)       31.8925   31.8190   14.6710 H         1 UNK         0.0000 
   7535 H(4)       31.9052   31.2632   17.0780 H         1 UNK         0.0000 
   7536 H(5)       30.7624   32.9868   13.0039 H         1 UNK         0.0000 
   7537 H(6)       30.9983   31.5119   19.1403 H         1 UNK         0.0000 
   7538 H(7)       29.4441   31.9956   21.7490 H         1 UNK         0.0000 
   7539 H(8)       30.5192   30.8140   21.1093 H         1 UNK         0.0000 
   7540 H(9)       28.8419   30.4480   21.4570 H         1 UNK         0.0000 
   7541 O(1)       34.2425   21.7258   16.5945 O.3       1 UNK         0.0000 
   7542 O(2)       36.2403   27.8946   16.7103 O.2       1 UNK         0.0000 
   7543 N(1)       34.0591   27.2902   16.5226 N.am      1 UNK         0.0000 
   7544 C(1)       34.1586   25.8818   16.5738 C.ar      1 UNK         0.0000 
   7545 C(2)       35.2408   25.1936   17.1221 C.ar      1 UNK         0.0000 
   7546 C(3)       35.2478   23.8017   17.1257 C.ar      1 UNK         0.0000 
   7547 C(4)       34.1778   23.0871   16.5933 C.ar      1 UNK         0.0000 
   7548 C(5)       33.0822   23.7751   16.0731 C.ar      1 UNK         0.0000 
   7549 C(6)       33.0768   25.1626   16.0644 C.ar      1 UNK         0.0000 
   7550 C(7)       35.0499   28.1955   16.5694 C.2       1 UNK         0.0000 
   7551 C(8)       34.6091   29.6296   16.4484 C.3       1 UNK         0.0000 
   7552 H(1)       36.0813   25.7361   17.5368 H         1 UNK         0.0000 
   7553 H(2)       36.0986   23.2853   17.5527 H         1 UNK         0.0000 
   7554 H(3)       32.2390   23.2258   15.6728 H         1 UNK         0.0000 
   7555 H(4)       32.2262   25.6961   15.6585 H         1 UNK         0.0000 
   7556 H(5)       33.3690   21.3432   16.4465 H         1 UNK         0.0000 
   7557 H(6)       33.1332   27.6537   16.3534 H         1 UNK         0.0000 
   7558 H(7)       34.6873   30.0928   17.3976 H         1 UNK         0.0000 
   7559 H(8)       33.6123   29.7278   16.1044 H         1 UNK         0.0000 
   7560 H(9)       35.2895   30.1473   15.8236 H         1 UNK         0.0000 
   7561 O(1)       29.9086   19.2412   22.6641 O.3       1 UNK         0.0000 
   7562 O(2)       31.9064   20.4813   16.6201 O.2       1 UNK         0.0000 
   7563 N(1)       29.7253   20.5319   17.2510 N.am      1 UNK         0.0000 
   7564 C(1)       29.8247   20.1730   18.6139 C.ar      1 UNK         0.0000 
   7565 C(2)       30.9069   19.4871   19.1651 C.ar      1 UNK         0.0000 
   7566 C(3)       30.9139   19.1784   20.5223 C.ar      1 UNK         0.0000 
   7567 C(4)       29.8439   19.5410   21.3362 C.ar      1 UNK         0.0000 
   7568 C(5)       28.7483   20.1994   20.7791 C.ar      1 UNK         0.0000 
   7569 C(6)       28.7430   20.5123   19.4273 C.ar      1 UNK         0.0000 
   7570 C(7)       30.7160   20.6847   16.3575 C.2       1 UNK         0.0000 
   7571 C(8)       30.2752   21.1174   14.9848 C.3       1 UNK         0.0000 
   7572 H(1)       31.7474   19.2015   18.5448 H         1 UNK         0.0000 
   7573 H(2)       31.7647   18.6484   20.9325 H         1 UNK         0.0000 
   7574 H(3)       27.9051   20.4695   21.4028 H         1 UNK         0.0000 
   7575 H(4)       27.8923   21.0253   18.9958 H         1 UNK         0.0000 
   7576 H(5)       29.0351   19.3017   23.0699 H         1 UNK         0.0000 
   7577 H(6)       28.7993   20.7767   16.9335 H         1 UNK         0.0000 
   7578 H(7)       30.3534   20.2929   14.3248 H         1 UNK         0.0000 
   7579 H(8)       29.2784   21.4745   14.9645 H         1 UNK         0.0000 
   7580 H(9)       30.9557   21.8405   14.6168 H         1 UNK         0.0000 
   7581 O(1)       32.6321   30.5627   19.4793 O.3       1 UNK         0.0000 
   7582 O(2)       30.6343   24.3939   19.3635 O.2       1 UNK         0.0000 
   7583 N(1)       32.8154   24.9983   19.5512 N.am      1 UNK         0.0000 
   7584 C(1)       32.7160   26.4068   19.5000 C.ar      1 UNK         0.0000 
   7585 C(2)       31.6338   27.0950   18.9517 C.ar      1 UNK         0.0000 
   7586 C(3)       31.6268   28.4868   18.9482 C.ar      1 UNK         0.0000 
   7587 C(4)       32.6968   29.2014   19.4805 C.ar      1 UNK         0.0000 
   7588 C(5)       33.7924   28.5135   20.0007 C.ar      1 UNK         0.0000 
   7589 C(6)       33.7977   27.1259   20.0094 C.ar      1 UNK         0.0000 
   7590 C(7)       31.8246   24.0930   19.5044 C.2       1 UNK         0.0000 
   7591 C(8)       32.2655   22.6589   19.6254 C.3       1 UNK         0.0000 
   7592 H(1)       30.7933   26.5524   18.5370 H         1 UNK         0.0000 
   7593 H(2)       30.7760   29.0033   18.5211 H         1 UNK         0.0000 
   7594 H(3)       34.6356   29.0627   20.4010 H         1 UNK         0.0000 
   7595 H(4)       34.6483   26.5924   20.4154 H         1 UNK         0.0000 
   7596 H(5)       33.5055   30.9453   19.6273 H         1 UNK         0.0000 
   7597 H(6)       33.7414   24.6348   19.7204 H         1 UNK         0.0000 
   7598 H(7)       32.1872   22.1958   18.6762 H         1 UNK         0.0000 
   7599 H(8)       33.2623   22.5607   19.9694 H         1 UNK         0.0000 
   7600 H(9)       31.5850   22.1412   20.2502 H         1 UNK         0.0000 
   7601 O(1)       28.2982   24.0960   20.5721 O.3       1 UNK         0.0000 
   7602 O(2)       26.3004   22.8559   26.6161 O.2       1 UNK         0.0000 
   7603 N(1)       28.4815   22.8052   25.9852 N.am      1 UNK         0.0000 
   7604 C(1)       28.3821   23.1642   24.6223 C.ar      1 UNK         0.0000 
   7605 C(2)       27.2999   23.8500   24.0711 C.ar      1 UNK         0.0000 
   7606 C(3)       27.2929   24.1588   22.7140 C.ar      1 UNK         0.0000 
   7607 C(4)       28.3629   23.7962   21.9000 C.ar      1 UNK         0.0000 
   7608 C(5)       29.4585   23.1378   22.4571 C.ar      1 UNK         0.0000 
   7609 C(6)       29.4638   22.8249   23.8089 C.ar      1 UNK         0.0000 
   7610 C(7)       27.4908   22.6524   26.8787 C.2       1 UNK         0.0000 
   7611 C(8)       27.9316   22.2198   28.2514 C.3       1 UNK         0.0000 
   7612 H(1)       26.4594   24.1357   24.6914 H         1 UNK         0.0000 
   7613 H(2)       26.4421   24.6887   22.3037 H         1 UNK         0.0000 
   7614 H(3)       30.3017   22.8677   21.8334 H         1 UNK         0.0000 
   7615 H(4)       30.3144   22.3118   24.2404 H         1 UNK         0.0000 
   7616 H(5)       29.1716   24.0354   20.1663 H         1 UNK         0.0000 
   7617 H(6)       29.4075   22.5605   26.3027 H         1 UNK         0.0000 
   7618 H(7)       27.8533   23.0442   28.9114 H         1 UNK         0.0000 
   7619 H(8)       28.9284   21.8626   28.2717 H         1 UNK         0.0000 
   7620 H(9)       27.2511   21.4967   28.6194 H         1 UNK         0.0000 
   7621 O(1)       27.1655   27.4568   23.7569 O.3       1 UNK         0.0000 
   7622 O(2)       29.1633   33.6256   23.8727 O.2       1 UNK         0.0000 
   7623 N(1)       26.9821   33.0212   23.6850 N.am      1 UNK         0.0000 
   7624 C(1)       27.0816   31.6127   23.7362 C.ar      1 UNK         0.0000 
   7625 C(2)       28.1638   30.9245   24.2845 C.ar      1 UNK         0.0000 
   7626 C(3)       28.1708   29.5327   24.2881 C.ar      1 UNK         0.0000 
   7627 C(4)       27.1008   28.8181   23.7557 C.ar      1 UNK         0.0000 
   7628 C(5)       26.0052   29.5060   23.2355 C.ar      1 UNK         0.0000 
   7629 C(6)       25.9998   30.8936   23.2268 C.ar      1 UNK         0.0000 
   7630 C(7)       27.9729   33.9265   23.7318 C.2       1 UNK         0.0000 
   7631 C(8)       27.5321   35.3606   23.6108 C.3       1 UNK         0.0000 
   7632 H(1)       29.0043   31.4671   24.6992 H         1 UNK         0.0000 
   7633 H(2)       29.0216   29.0162   24.7151 H         1 UNK         0.0000 
   7634 H(3)       25.1620   28.9568   22.8352 H         1 UNK         0.0000 
   7635 H(4)       25.1492   31.4271   22.8209 H         1 UNK         0.0000 
   7636 H(5)       26.2920   27.0742   23.6089 H         1 UNK         0.0000 
   7637 H(6)       26.0562   33.3846   23.5158 H         1 UNK         0.0000 
   7638 H(7)       27.6103   35.8237   24.5600 H         1 UNK         0.0000 
   7639 H(8)       26.5353   35.4588   23.2668 H         1 UNK         0.0000 
   7640 H(9)       28.2125   35.8783   22.9860 H         1 UNK         0.0000 
   7641 O(1)       31.4994   22.4616    8.3393 O.3       1 UNK         0.0000 
   7642 O(2)       33.4972   23.7017    2.2953 O.2       1 UNK         0.0000 
   7643 N(1)       31.3160   23.7523    2.9262 N.am      1 UNK         0.0000 
   7644 C(1)       31.4155   23.3934    4.2891 C.ar      1 UNK         0.0000 
   7645 C(2)       32.4976   22.7075    4.8403 C.ar      1 UNK         0.0000 
   7646 C(3)       32.5047   22.3988    6.1975 C.ar      1 UNK         0.0000 
   7647 C(4)       31.4347   22.7614    7.0114 C.ar      1 UNK         0.0000 
   7648 C(5)       30.3390   23.4198    6.4543 C.ar      1 UNK         0.0000 
   7649 C(6)       30.3337   23.7327    5.1025 C.ar      1 UNK         0.0000 
   7650 C(7)       32.3068   23.9051    2.0327 C.2       1 UNK         0.0000 
   7651 C(8)       31.8660   24.3378    0.6600 C.3       1 UNK         0.0000 
   7652 H(1)       33.3382   22.4219    4.2200 H         1 UNK         0.0000 
   7653 H(2)       33.3555   21.8688    6.6077 H         1 UNK         0.0000 
   7654 H(3)       29.4959   23.6899    7.0780 H         1 UNK         0.0000 
   7655 H(4)       29.4831   24.2457    4.6710 H         1 UNK         0.0000 
   7656 H(5)       30.6259   22.5221    8.7451 H         1 UNK         0.0000 
   7657 H(6)       30.3901   23.9971    2.6087 H         1 UNK         0.0000 
   7658 H(7)       31.9442   23.5133    0.0000 H         1 UNK         0.0000 
   7659 H(8)       30.8692   24.6949    0.6397 H         1 UNK         0.0000 
   7660 H(9)       32.5464   25.0609    0.2920 H         1 UNK         0.0000 
   7661 O(1)       34.2229   33.7831    5.1545 O.3       1 UNK         0.0000 
   7662 O(2)       32.2251   27.6143    5.0387 O.2       1 UNK         0.0000 
   7663 N(1)       34.4062   28.2187    5.2264 N.am      1 UNK         0.0000 
   7664 C(1)       34.3068   29.6272    5.1752 C.ar      1 UNK         0.0000 
   7665 C(2)       33.2246   30.3154    4.6269 C.ar      1 UNK         0.0000 
   7666 C(3)       33.2176   31.7072    4.6234 C.ar      1 UNK         0.0000 
   7667 C(4)       34.2876   32.4218    5.1557 C.ar      1 UNK         0.0000 
   7668 C(5)       35.3832   31.7339    5.6759 C.ar      1 UNK         0.0000 
   7669 C(6)       35.3885   30.3463    5.6846 C.ar      1 UNK         0.0000 
   7670 C(7)       33.4154   27.3134    5.1796 C.2       1 UNK         0.0000 
   7671 C(8)       33.8563   25.8793    5.3006 C.3       1 UNK         0.0000 
   7672 H(1)       32.3841   29.7728    4.2122 H         1 UNK         0.0000 
   7673 H(2)       32.3668   32.2236    4.1963 H         1 UNK         0.0000 
   7674 H(3)       36.2264   32.2831    6.0762 H         1 UNK         0.0000 
   7675 H(4)       36.2391   29.8128    6.0906 H         1 UNK         0.0000 
   7676 H(5)       35.0963   34.1657    5.3025 H         1 UNK         0.0000 
   7677 H(6)       35.3322   27.8552    5.3956 H         1 UNK         0.0000 
   7678 H(7)       33.7780   25.4162    4.3514 H         1 UNK         0.0000 
   7679 H(8)       34.8531   25.7811    5.6446 H         1 UNK         0.0000 
   7680 H(9)       33.1758   25.3616    5.9254 H         1 UNK         0.0000 
   7681 O(1)       31.4798   41.9987    6.2473 O.3       1 UNK         0.0000 
   7682 O(2)       29.4820   40.7586   12.2913 O.2       1 UNK         0.0000 
   7683 N(1)       31.6631   40.7080   11.6604 N.am      1 UNK         0.0000 
   7684 C(1)       31.5636   41.0669   10.2975 C.ar      1 UNK         0.0000 
   7685 C(2)       30.4815   41.7528    9.7463 C.ar      1 UNK         0.0000 
   7686 C(3)       30.4745   42.0615    8.3892 C.ar      1 UNK         0.0000 
   7687 C(4)       31.5445   41.6989    7.5752 C.ar      1 UNK         0.0000 
   7688 C(5)       32.6401   41.0405    8.1323 C.ar      1 UNK         0.0000 
   7689 C(6)       32.6454   40.7276    9.4841 C.ar      1 UNK         0.0000 
   7690 C(7)       30.6723   40.5551   12.5539 C.2       1 UNK         0.0000 
   7691 C(8)       31.1132   40.1225   13.9266 C.3       1 UNK         0.0000 
   7692 H(1)       29.6410   42.0384   10.3666 H         1 UNK         0.0000 
   7693 H(2)       29.6236   42.5914    7.9789 H         1 UNK         0.0000 
   7694 H(3)       33.4833   40.7704    7.5086 H         1 UNK         0.0000 
   7695 H(4)       33.4960   40.2146    9.9156 H         1 UNK         0.0000 
   7696 H(5)       32.3532   41.9382    5.8415 H         1 UNK         0.0000 
   7697 H(6)       32.5891   40.4632   11.9779 H         1 UNK         0.0000 
   7698 H(7)       31.0349   40.9470   14.5866 H         1 UNK         0.0000 
   7699 H(8)       32.1100   39.7654   13.9469 H         1 UNK         0.0000 
   7700 H(9)       30.4327   39.3994   14.2946 H         1 UNK         0.0000 
   7701 O(1)       35.8333   30.6772    9.4321 O.3       1 UNK         0.0000 
   7702 O(2)       37.8311   36.8460    9.5479 O.2       1 UNK         0.0000 
   7703 N(1)       35.6499   36.2416    9.3602 N.am      1 UNK         0.0000 
   7704 C(1)       35.7494   34.8331    9.4114 C.ar      1 UNK         0.0000 
   7705 C(2)       36.8315   34.1449    9.9597 C.ar      1 UNK         0.0000 
   7706 C(3)       36.8386   32.7531    9.9633 C.ar      1 UNK         0.0000 
   7707 C(4)       35.7685   32.0385    9.4309 C.ar      1 UNK         0.0000 
   7708 C(5)       34.6729   32.7264    8.9107 C.ar      1 UNK         0.0000 
   7709 C(6)       34.6676   34.1140    8.9020 C.ar      1 UNK         0.0000 
   7710 C(7)       36.6407   37.1469    9.4070 C.2       1 UNK         0.0000 
   7711 C(8)       36.1998   38.5810    9.2860 C.3       1 UNK         0.0000 
   7712 H(1)       37.6721   34.6875   10.3744 H         1 UNK         0.0000 
   7713 H(2)       37.6894   32.2366   10.3903 H         1 UNK         0.0000 
   7714 H(3)       33.8298   32.1772    8.5104 H         1 UNK         0.0000 
   7715 H(4)       33.8170   34.6475    8.4961 H         1 UNK         0.0000 
   7716 H(5)       34.9598   30.2946    9.2841 H         1 UNK         0.0000 
   7717 H(6)       34.7240   36.6050    9.1910 H         1 UNK         0.0000 
   7718 H(7)       36.2781   39.0441   10.2352 H         1 UNK         0.0000 
   7719 H(8)       35.2031   38.6792    8.9420 H         1 UNK         0.0000 
   7720 H(9)       36.8803   39.0987    8.6612 H         1 UNK         0.0000 
   7721 O(1)       26.0132   42.8749   15.5017 O.3       1 UNK         0.0000 
   7722 O(2)       28.0110   44.1150    9.4577 O.2       1 UNK         0.0000 
   7723 N(1)       25.8298   44.1656   10.0886 N.am      1 UNK         0.0000 
   7724 C(1)       25.9293   43.8067   11.4515 C.ar      1 UNK         0.0000 
   7725 C(2)       27.0114   43.1208   12.0027 C.ar      1 UNK         0.0000 
   7726 C(3)       27.0185   42.8120   13.3599 C.ar      1 UNK         0.0000 
   7727 C(4)       25.9484   43.1747   14.1738 C.ar      1 UNK         0.0000 
   7728 C(5)       24.8528   43.8331   13.6167 C.ar      1 UNK         0.0000 
   7729 C(6)       24.8475   44.1460   12.2649 C.ar      1 UNK         0.0000 
   7730 C(7)       26.8206   44.3184    9.1951 C.2       1 UNK         0.0000 
   7731 C(8)       26.3797   44.7511    7.8224 C.3       1 UNK         0.0000 
   7732 H(1)       27.8520   42.8352   11.3824 H         1 UNK         0.0000 
   7733 H(2)       27.8693   42.2821   13.7701 H         1 UNK         0.0000 
   7734 H(3)       24.0097   44.1032   14.2404 H         1 UNK         0.0000 
   7735 H(4)       23.9969   44.6590   11.8334 H         1 UNK         0.0000 
   7736 H(5)       25.1397   42.9354   15.9075 H         1 UNK         0.0000 
   7737 H(6)       24.9039   44.4103    9.7711 H         1 UNK         0.0000 
   7738 H(7)       26.4580   43.9266    7.1624 H         1 UNK         0.0000 
   7739 H(8)       25.3830   45.1082    7.8021 H         1 UNK         0.0000 
   7740 H(9)       27.0602   45.4742    7.4544 H         1 UNK         0.0000 
   7741 O(1)       27.1459   39.5141   12.3169 O.3       1 UNK         0.0000 
   7742 O(2)       25.1481   33.3453   12.2011 O.2       1 UNK         0.0000 
   7743 N(1)       27.3292   33.9497   12.3888 N.am      1 UNK         0.0000 
   7744 C(1)       27.2297   35.3581   12.3376 C.ar      1 UNK         0.0000 
   7745 C(2)       26.1476   36.0463   11.7893 C.ar      1 UNK         0.0000 
   7746 C(3)       26.1406   37.4381   11.7858 C.ar      1 UNK         0.0000 
   7747 C(4)       27.2106   38.1527   12.3181 C.ar      1 UNK         0.0000 
   7748 C(5)       28.3062   37.4648   12.8383 C.ar      1 UNK         0.0000 
   7749 C(6)       28.3115   36.0773   12.8470 C.ar      1 UNK         0.0000 
   7750 C(7)       26.3384   33.0444   12.3420 C.2       1 UNK         0.0000 
   7751 C(8)       26.7793   31.6102   12.4630 C.3       1 UNK         0.0000 
   7752 H(1)       25.3071   35.5038   11.3746 H         1 UNK         0.0000 
   7753 H(2)       25.2898   37.9546   11.3587 H         1 UNK         0.0000 
   7754 H(3)       29.1494   38.0141   13.2386 H         1 UNK         0.0000 
   7755 H(4)       29.1621   35.5438   13.2530 H         1 UNK         0.0000 
   7756 H(5)       28.0193   39.8967   12.4649 H         1 UNK         0.0000 
   7757 H(6)       28.2552   33.5862   12.5580 H         1 UNK         0.0000 
   7758 H(7)       26.7010   31.1471   11.5138 H         1 UNK         0.0000 
   7759 H(8)       27.7761   31.5121   12.8070 H         1 UNK         0.0000 
   7760 H(9)       26.0988   31.0926   13.0878 H         1 UNK         0.0000 
   7761 O(1)       31.4798   47.7297   13.4097 O.3       1 UNK         0.0000 
   7762 O(2)       29.4820   46.4896   19.4537 O.2       1 UNK         0.0000 
   7763 N(1)       31.6631   46.4389   18.8228 N.am      1 UNK         0.0000 
   7764 C(1)       31.5636   46.7979   17.4599 C.ar      1 UNK         0.0000 
   7765 C(2)       30.4815   47.4837   16.9087 C.ar      1 UNK         0.0000 
   7766 C(3)       30.4745   47.7925   15.5516 C.ar      1 UNK         0.0000 
   7767 C(4)       31.5445   47.4298   14.7376 C.ar      1 UNK         0.0000 
   7768 C(5)       32.6401   46.7715   15.2947 C.ar      1 UNK         0.0000 
   7769 C(6)       32.6454   46.4586   16.6465 C.ar      1 UNK         0.0000 
   7770 C(7)       30.6723   46.2861   19.7163 C.2       1 UNK         0.0000 
   7771 C(8)       31.1132   45.8535   21.0890 C.3       1 UNK         0.0000 
   7772 H(1)       29.6410   47.7694   17.5290 H         1 UNK         0.0000 
   7773 H(2)       29.6236   48.3224   15.1413 H         1 UNK         0.0000 
   7774 H(3)       33.4833   46.5014   14.6710 H         1 UNK         0.0000 
   7775 H(4)       33.4960   45.9455   17.0780 H         1 UNK         0.0000 
   7776 H(5)       32.3532   47.6691   13.0039 H         1 UNK         0.0000 
   7777 H(6)       32.5891   46.1942   19.1403 H         1 UNK         0.0000 
   7778 H(7)       31.0349   46.6779   21.7490 H         1 UNK         0.0000 
   7779 H(8)       32.1100   45.4963   21.1093 H         1 UNK         0.0000 
   7780 H(9)       30.4327   45.1304   21.4570 H         1 UNK         0.0000 
   7781 O(1)       35.8333   36.4082   16.5945 O.3       1 UNK         0.0000 
   7782 O(2)       37.8311   42.5769   16.7103 O.2       1 UNK         0.0000 
   7783 N(1)       35.6499   41.9725   16.5226 N.am      1 UNK         0.0000 
   7784 C(1)       35.7494   40.5641   16.5738 C.ar      1 UNK         0.0000 
   7785 C(2)       36.8315   39.8759   17.1221 C.ar      1 UNK         0.0000 
   7786 C(3)       36.8386   38.4841   17.1257 C.ar      1 UNK         0.0000 
   7787 C(4)       35.7685   37.7695   16.5933 C.ar      1 UNK         0.0000 
   7788 C(5)       34.6729   38.4574   16.0731 C.ar      1 UNK         0.0000 
   7789 C(6)       34.6676   39.8449   16.0644 C.ar      1 UNK         0.0000 
   7790 C(7)       36.6407   42.8779   16.5694 C.2       1 UNK         0.0000 
   7791 C(8)       36.1998   44.3120   16.4484 C.3       1 UNK         0.0000 
   7792 H(1)       37.6721   40.4184   17.5368 H         1 UNK         0.0000 
   7793 H(2)       37.6894   37.9676   17.5527 H         1 UNK         0.0000 
   7794 H(3)       33.8298   37.9081   15.6728 H         1 UNK         0.0000 
   7795 H(4)       33.8170   40.3784   15.6585 H         1 UNK         0.0000 
   7796 H(5)       34.9598   36.0256   16.4465 H         1 UNK         0.0000 
   7797 H(6)       34.7240   42.3360   16.3534 H         1 UNK         0.0000 
   7798 H(7)       36.2781   44.7751   17.3976 H         1 UNK         0.0000 
   7799 H(8)       35.2031   44.4101   16.1044 H         1 UNK         0.0000 
   7800 H(9)       36.8803   44.8296   15.8236 H         1 UNK         0.0000 
   7801 O(1)       31.4994   33.9235   22.6641 O.3       1 UNK         0.0000 
   7802 O(2)       33.4972   35.1636   16.6201 O.2       1 UNK         0.0000 
   7803 N(1)       31.3160   35.2142   17.2510 N.am      1 UNK         0.0000 
   7804 C(1)       31.4155   34.8553   18.6139 C.ar      1 UNK         0.0000 
   7805 C(2)       32.4976   34.1694   19.1651 C.ar      1 UNK         0.0000 
   7806 C(3)       32.5047   33.8607   20.5223 C.ar      1 UNK         0.0000 
   7807 C(4)       31.4347   34.2233   21.3362 C.ar      1 UNK         0.0000 
   7808 C(5)       30.3390   34.8817   20.7791 C.ar      1 UNK         0.0000 
   7809 C(6)       30.3337   35.1946   19.4273 C.ar      1 UNK         0.0000 
   7810 C(7)       32.3068   35.3671   16.3575 C.2       1 UNK         0.0000 
   7811 C(8)       31.8660   35.7997   14.9848 C.3       1 UNK         0.0000 
   7812 H(1)       33.3382   33.8838   18.5448 H         1 UNK         0.0000 
   7813 H(2)       33.3555   33.3308   20.9325 H         1 UNK         0.0000 
   7814 H(3)       29.4959   35.1518   21.4028 H         1 UNK         0.0000 
   7815 H(4)       29.4831   35.7077   18.9958 H         1 UNK         0.0000 
   7816 H(5)       30.6259   33.9840   23.0699 H         1 UNK         0.0000 
   7817 H(6)       30.3901   35.4590   16.9335 H         1 UNK         0.0000 
   7818 H(7)       31.9442   34.9753   14.3248 H         1 UNK         0.0000 
   7819 H(8)       30.8692   36.1568   14.9645 H         1 UNK         0.0000 
   7820 H(9)       32.5464   36.5228   14.6168 H         1 UNK         0.0000 
   7821 O(1)       34.2229   45.2450   19.4793 O.3       1 UNK         0.0000 
   7822 O(2)       32.2251   39.0762   19.3635 O.2       1 UNK         0.0000 
   7823 N(1)       34.4062   39.6806   19.5512 N.am      1 UNK         0.0000 
   7824 C(1)       34.3068   41.0891   19.5000 C.ar      1 UNK         0.0000 
   7825 C(2)       33.2246   41.7773   18.9517 C.ar      1 UNK         0.0000 
   7826 C(3)       33.2176   43.1691   18.9482 C.ar      1 UNK         0.0000 
   7827 C(4)       34.2876   43.8837   19.4805 C.ar      1 UNK         0.0000 
   7828 C(5)       35.3832   43.1958   20.0007 C.ar      1 UNK         0.0000 
   7829 C(6)       35.3885   41.8082   20.0094 C.ar      1 UNK         0.0000 
   7830 C(7)       33.4154   38.7753   19.5044 C.2       1 UNK         0.0000 
   7831 C(8)       33.8563   37.3412   19.6254 C.3       1 UNK         0.0000 
   7832 H(1)       32.3841   41.2348   18.5370 H         1 UNK         0.0000 
   7833 H(2)       32.3668   43.6856   18.5211 H         1 UNK         0.0000 
   7834 H(3)       36.2264   43.7450   20.4010 H         1 UNK         0.0000 
   7835 H(4)       36.2391   41.2747   20.4154 H         1 UNK         0.0000 
   7836 H(5)       35.0963   45.6276   19.6273 H         1 UNK         0.0000 
   7837 H(6)       35.3322   39.3172   19.7204 H         1 UNK         0.0000 
   7838 H(7)       33.7780   36.8781   18.6762 H         1 UNK         0.0000 
   7839 H(8)       34.8531   37.2431   19.9694 H         1 UNK         0.0000 
   7840 H(9)       33.1758   36.8235   20.2502 H         1 UNK         0.0000 
   7841 O(1)       29.8890   38.7783   20.5721 O.3       1 UNK         0.0000 
   7842 O(2)       27.8912   37.5382   26.6161 O.2       1 UNK         0.0000 
   7843 N(1)       30.0723   37.4876   25.9852 N.am      1 UNK         0.0000 
   7844 C(1)       29.9729   37.8465   24.6223 C.ar      1 UNK         0.0000 
   7845 C(2)       28.8907   38.5324   24.0711 C.ar      1 UNK         0.0000 
   7846 C(3)       28.8837   38.8411   22.7140 C.ar      1 UNK         0.0000 
   7847 C(4)       29.9537   38.4785   21.9000 C.ar      1 UNK         0.0000 
   7848 C(5)       31.0493   37.8201   22.4571 C.ar      1 UNK         0.0000 
   7849 C(6)       31.0546   37.5072   23.8089 C.ar      1 UNK         0.0000 
   7850 C(7)       29.0815   37.3347   26.8787 C.2       1 UNK         0.0000 
   7851 C(8)       29.5224   36.9021   28.2514 C.3       1 UNK         0.0000 
   7852 H(1)       28.0502   38.8180   24.6914 H         1 UNK         0.0000 
   7853 H(2)       28.0329   39.3710   22.3037 H         1 UNK         0.0000 
   7854 H(3)       31.8925   37.5500   21.8334 H         1 UNK         0.0000 
   7855 H(4)       31.9052   36.9942   24.2404 H         1 UNK         0.0000 
   7856 H(5)       30.7624   38.7178   20.1663 H         1 UNK         0.0000 
   7857 H(6)       30.9983   37.2428   26.3027 H         1 UNK         0.0000 
   7858 H(7)       29.4441   37.7266   28.9114 H         1 UNK         0.0000 
   7859 H(8)       30.5192   36.5450   28.2717 H         1 UNK         0.0000 
   7860 H(9)       28.8419   36.1790   28.6194 H         1 UNK         0.0000 
   7861 O(1)       28.7563   42.1391   23.7569 O.3       1 UNK         0.0000 
   7862 O(2)       30.7541   48.3079   23.8727 O.2       1 UNK         0.0000 
   7863 N(1)       28.5729   47.7035   23.6850 N.am      1 UNK         0.0000 
   7864 C(1)       28.6724   46.2951   23.7362 C.ar      1 UNK         0.0000 
   7865 C(2)       29.7545   45.6068   24.2845 C.ar      1 UNK         0.0000 
   7866 C(3)       29.7616   44.2150   24.2881 C.ar      1 UNK         0.0000 
   7867 C(4)       28.6915   43.5004   23.7557 C.ar      1 UNK         0.0000 
   7868 C(5)       27.5959   44.1884   23.2355 C.ar      1 UNK         0.0000 
   7869 C(6)       27.5906   45.5759   23.2268 C.ar      1 UNK         0.0000 
   7870 C(7)       29.5637   48.6088   23.7318 C.2       1 UNK         0.0000 
   7871 C(8)       29.1228   50.0429   23.6108 C.3       1 UNK         0.0000 
   7872 H(1)       30.5951   46.1494   24.6992 H         1 UNK         0.0000 
   7873 H(2)       30.6124   43.6986   24.7151 H         1 UNK         0.0000 
   7874 H(3)       26.7528   43.6391   22.8352 H         1 UNK         0.0000 
   7875 H(4)       26.7400   46.1094   22.8209 H         1 UNK         0.0000 
   7876 H(5)       27.8828   41.7565   23.6089 H         1 UNK         0.0000 
   7877 H(6)       27.6470   48.0670   23.5158 H         1 UNK         0.0000 
   7878 H(7)       29.2011   50.5060   24.5600 H         1 UNK         0.0000 
   7879 H(8)       28.1261   50.1411   23.2668 H         1 UNK         0.0000 
   7880 H(9)       29.8033   50.5606   22.9860 H         1 UNK         0.0000 
   7881 O(1)       33.0902   37.1439    8.3393 O.3       1 UNK         0.0000 
   7882 O(2)       35.0880   38.3840    2.2953 O.2       1 UNK         0.0000 
   7883 N(1)       32.9068   38.4346    2.9262 N.am      1 UNK         0.0000 
   7884 C(1)       33.0063   38.0757    4.2891 C.ar      1 UNK         0.0000 
   7885 C(2)       34.0884   37.3898    4.8403 C.ar      1 UNK         0.0000 
   7886 C(3)       34.0955   37.0811    6.1975 C.ar      1 UNK         0.0000 
   7887 C(4)       33.0254   37.4437    7.0114 C.ar      1 UNK         0.0000 
   7888 C(5)       31.9298   38.1021    6.4543 C.ar      1 UNK         0.0000 
   7889 C(6)       31.9245   38.4150    5.1025 C.ar      1 UNK         0.0000 
   7890 C(7)       33.8976   38.5875    2.0327 C.2       1 UNK         0.0000 
   7891 C(8)       33.4567   39.0201    0.6600 C.3       1 UNK         0.0000 
   7892 H(1)       34.9290   37.1042    4.2200 H         1 UNK         0.0000 
   7893 H(2)       34.9463   36.5512    6.6077 H         1 UNK         0.0000 
   7894 H(3)       31.0867   38.3722    7.0780 H         1 UNK         0.0000 
   7895 H(4)       31.0739   38.9281    4.6710 H         1 UNK         0.0000 
   7896 H(5)       32.2167   37.2044    8.7451 H         1 UNK         0.0000 
   7897 H(6)       31.9809   38.6794    2.6087 H         1 UNK         0.0000 
   7898 H(7)       33.5350   38.1956    0.0000 H         1 UNK         0.0000 
   7899 H(8)       32.4600   39.3772    0.6397 H         1 UNK         0.0000 
   7900 H(9)       34.1372   39.7432    0.2920 H         1 UNK         0.0000 
   7901 O(1)       35.8137   48.4654    5.1545 O.3       1 UNK         0.0000 
   7902 O(2)       33.8158   42.2966    5.0387 O.2       1 UNK         0.0000 
   7903 N(1)       35.9970   42.9010    5.2264 N.am      1 UNK         0.0000 
   7904 C(1)       35.8975   44.3095    5.1752 C.ar      1 UNK         0.0000 
   7905 C(2)       34.8154   44.9977    4.6269 C.ar      1 UNK         0.0000 
   7906 C(3)       34.8083   46.3895    4.6234 C.ar      1 UNK         0.0000 
   7907 C(4)       35.8784   47.1041    5.1557 C.ar      1 UNK         0.0000 
   7908 C(5)       36.9740   46.4162    5.6759 C.ar      1 UNK         0.0000 
   7909 C(6)       36.9793   45.0286    5.6846 C.ar      1 UNK         0.0000 
   7910 C(7)       35.0062   41.9957    5.1796 C.2       1 UNK         0.0000 
   7911 C(8)       35.4471   40.5616    5.3006 C.3       1 UNK         0.0000 
   7912 H(1)       33.9748   44.4552    4.2122 H         1 UNK         0.0000 
   7913 H(2)       33.9575   46.9060    4.1963 H         1 UNK         0.0000 
   7914 H(3)       37.8171   46.9654    6.0762 H         1 UNK         0.0000 
   7915 H(4)       37.8299   44.4951    6.0906 H         1 UNK         0.0000 
   7916 H(5)       36.6871   48.8480    5.3025 H         1 UNK         0.0000 
   7917 H(6)       36.9230   42.5376    5.3956 H         1 UNK         0.0000 
   7918 H(7)       35.3688   40.0985    4.3514 H         1 UNK         0.0000 
   7919 H(8)       36.4438   40.4635    5.6446 H         1 UNK         0.0000 
   7920 H(9)       34.7666   40.0439    5.9254 H         1 UNK         0.0000 
   7921 O(1)       33.0706   56.6810    6.2473 O.3       1 UNK         0.0000 
   7922 O(2)       31.0727   55.4409   12.2913 O.2       1 UNK         0.0000 
   7923 N(1)       33.2539   55.3903   11.6604 N.am      1 UNK         0.0000 
   7924 C(1)       33.1544   55.7492   10.2975 C.ar      1 UNK         0.0000 
   7925 C(2)       32.0723   56.4351    9.7463 C.ar      1 UNK         0.0000 
   7926 C(3)       32.0652   56.7439    8.3892 C.ar      1 UNK         0.0000 
   7927 C(4)       33.1353   56.3812    7.5752 C.ar      1 UNK         0.0000 
   7928 C(5)       34.2309   55.7228    8.1323 C.ar      1 UNK         0.0000 
   7929 C(6)       34.2362   55.4100    9.4841 C.ar      1 UNK         0.0000 
   7930 C(7)       32.2631   55.2375   12.5539 C.2       1 UNK         0.0000 
   7931 C(8)       32.7040   54.8048   13.9266 C.3       1 UNK         0.0000 
   7932 H(1)       31.2317   56.7208   10.3666 H         1 UNK         0.0000 
   7933 H(2)       31.2144   57.2738    7.9789 H         1 UNK         0.0000 
   7934 H(3)       35.0740   55.4527    7.5086 H         1 UNK         0.0000 
   7935 H(4)       35.0868   54.8969    9.9156 H         1 UNK         0.0000 
   7936 H(5)       33.9440   56.6205    5.8415 H         1 UNK         0.0000 
   7937 H(6)       34.1798   55.1456   11.9779 H         1 UNK         0.0000 
   7938 H(7)       32.6257   55.6293   14.5866 H         1 UNK         0.0000 
   7939 H(8)       33.7007   54.4477   13.9469 H         1 UNK         0.0000 
   7940 H(9)       32.0235   54.0817   14.2946 H         1 UNK         0.0000 
   7941 O(1)       37.4240   45.3595    9.4321 O.3       1 UNK         0.0000 
   7942 O(2)       39.4219   51.5283    9.5479 O.2       1 UNK         0.0000 
   7943 N(1)       37.2407   50.9239    9.3602 N.am      1 UNK         0.0000 
   7944 C(1)       37.3402   49.5155    9.4114 C.ar      1 UNK         0.0000 
   7945 C(2)       38.4223   48.8272    9.9597 C.ar      1 UNK         0.0000 
   7946 C(3)       38.4294   47.4354    9.9633 C.ar      1 UNK         0.0000 
   7947 C(4)       37.3593   46.7208    9.4309 C.ar      1 UNK         0.0000 
   7948 C(5)       36.2637   47.4088    8.9107 C.ar      1 UNK         0.0000 
   7949 C(6)       36.2584   48.7963    8.9020 C.ar      1 UNK         0.0000 
   7950 C(7)       38.2315   51.8292    9.4070 C.2       1 UNK         0.0000 
   7951 C(8)       37.7906   53.2633    9.2860 C.3       1 UNK         0.0000 
   7952 H(1)       39.2629   49.3698   10.3744 H         1 UNK         0.0000 
   7953 H(2)       39.2802   46.9190   10.3903 H         1 UNK         0.0000 
   7954 H(3)       35.4206   46.8595    8.5104 H         1 UNK         0.0000 
   7955 H(4)       35.4078   49.3298    8.4961 H         1 UNK         0.0000 
   7956 H(5)       36.5506   44.9769    9.2841 H         1 UNK         0.0000 
   7957 H(6)       36.3147   51.2874    9.1910 H         1 UNK         0.0000 
   7958 H(7)       37.8689   53.7264   10.2352 H         1 UNK         0.0000 
   7959 H(8)       36.7939   53.3615    8.9420 H         1 UNK         0.0000 
   7960 H(9)       38.4711   53.7810    8.6612 H         1 UNK         0.0000 
   7961 O(1)       27.6039   57.5572   15.5017 O.3       1 UNK         0.0000 
   7962 O(2)       29.6017   58.7973    9.4577 O.2       1 UNK         0.0000 
   7963 N(1)       27.4206   58.8479   10.0886 N.am      1 UNK         0.0000 
   7964 C(1)       27.5201   58.4890   11.4515 C.ar      1 UNK         0.0000 
   7965 C(2)       28.6022   57.8031   12.0027 C.ar      1 UNK         0.0000 
   7966 C(3)       28.6092   57.4944   13.3599 C.ar      1 UNK         0.0000 
   7967 C(4)       27.5392   57.8570   14.1738 C.ar      1 UNK         0.0000 
   7968 C(5)       26.4436   58.5154   13.6167 C.ar      1 UNK         0.0000 
   7969 C(6)       26.4383   58.8283   12.2649 C.ar      1 UNK         0.0000 
   7970 C(7)       28.4114   59.0008    9.1951 C.2       1 UNK         0.0000 
   7971 C(8)       27.9705   59.4334    7.8224 C.3       1 UNK         0.0000 
   7972 H(1)       29.4428   57.5175   11.3824 H         1 UNK         0.0000 
   7973 H(2)       29.4601   56.9645   13.7701 H         1 UNK         0.0000 
   7974 H(3)       25.6004   58.7855   14.2404 H         1 UNK         0.0000 
   7975 H(4)       25.5877   59.3414   11.8334 H         1 UNK         0.0000 
   7976 H(5)       26.7305   57.6177   15.9075 H         1 UNK         0.0000 
   7977 H(6)       26.4946   59.0927    9.7711 H         1 UNK         0.0000 
   7978 H(7)       28.0488   58.6089    7.1624 H         1 UNK         0.0000 
   7979 H(8)       26.9737   59.7905    7.8021 H         1 UNK         0.0000 
   7980 H(9)       28.6510   60.1565    7.4544 H         1 UNK         0.0000 
   7981 O(1)       28.7367   54.1964   12.3169 O.3       1 UNK         0.0000 
   7982 O(2)       26.7388   48.0276   12.2011 O.2       1 UNK         0.0000 
   7983 N(1)       28.9200   48.6320   12.3888 N.am      1 UNK         0.0000 
   7984 C(1)       28.8205   50.0404   12.3376 C.ar      1 UNK         0.0000 
   7985 C(2)       27.7384   50.7287   11.7893 C.ar      1 UNK         0.0000 
   7986 C(3)       27.7313   52.1205   11.7858 C.ar      1 UNK         0.0000 
   7987 C(4)       28.8014   52.8351   12.3181 C.ar      1 UNK         0.0000 
   7988 C(5)       29.8970   52.1472   12.8383 C.ar      1 UNK         0.0000 
   7989 C(6)       29.9023   50.7596   12.8470 C.ar      1 UNK         0.0000 
   7990 C(7)       27.9292   47.7267   12.3420 C.2       1 UNK         0.0000 
   7991 C(8)       28.3701   46.2926   12.4630 C.3       1 UNK         0.0000 
   7992 H(1)       26.8978   50.1861   11.3746 H         1 UNK         0.0000 
   7993 H(2)       26.8805   52.6369   11.3587 H         1 UNK         0.0000 
   7994 H(3)       30.7401   52.6964   13.2386 H         1 UNK         0.0000 
   7995 H(4)       30.7529   50.2261   13.2530 H         1 UNK         0.0000 
   7996 H(5)       29.6101   54.5790   12.4649 H         1 UNK         0.0000 
   7997 H(6)       29.8460   48.2685   12.5580 H         1 UNK         0.0000 
   7998 H(7)       28.2918   45.8295   11.5138 H         1 UNK         0.0000 
   7999 H(8)       29.3668   46.1944   12.8070 H         1 UNK         0.0000 
   8000 H(9)       27.6896   45.7749   13.0878 H         1 UNK         0.0000 
   8001 O(1)       33.0706   62.4120   13.4097 O.3       1 UNK         0.0000 
   8002 O(2)       31.0727   61.1719   19.4537 O.2       1 UNK         0.0000 
   8003 N(1)       33.2539   61.1213   18.8228 N.am      1 UNK         0.0000 
   8004 C(1)       33.1544   61.4802   17.4599 C.ar      1 UNK         0.0000 
   8005 C(2)       32.0723   62.1661   16.9087 C.ar      1 UNK         0.0000 
   8006 C(3)       32.0652   62.4748   15.5516 C.ar      1 UNK         0.0000 
   8007 C(4)       33.1353   62.1122   14.7376 C.ar      1 UNK         0.0000 
   8008 C(5)       34.2309   61.4538   15.2947 C.ar      1 UNK         0.0000 
   8009 C(6)       34.2362   61.1409   16.6465 C.ar      1 UNK         0.0000 
   8010 C(7)       32.2631   60.9684   19.7163 C.2       1 UNK         0.0000 
   8011 C(8)       32.7040   60.5358   21.0890 C.3       1 UNK         0.0000 
   8012 H(1)       31.2317   62.4517   17.5290 H         1 UNK         0.0000 
   8013 H(2)       31.2144   63.0047   15.1413 H         1 UNK         0.0000 
   8014 H(3)       35.0740   61.1837   14.6710 H         1 UNK         0.0000 
   8015 H(4)       35.0868   60.6279   17.0780 H         1 UNK         0.0000 
   8016 H(5)       33.9440   62.3515   13.0039 H         1 UNK         0.0000 
   8017 H(6)       34.1798   60.8765   19.1403 H         1 UNK         0.0000 
   8018 H(7)       32.6257   61.3603   21.7490 H         1 UNK         0.0000 
   8019 H(8)       33.7007   60.1787   21.1093 H         1 UNK         0.0000 
   8020 H(9)       32.0235   59.8127   21.4570 H         1 UNK         0.0000 
   8021 O(1)       37.4240   51.0905   16.5945 O.3       1 UNK         0.0000 
   8022 O(2)       39.4219   57.2593   16.7103 O.2       1 UNK         0.0000 
   8023 N(1)       37.2407   56.6549   16.5226 N.am      1 UNK         0.0000 
   8024 C(1)       37.3402   55.2464   16.5738 C.ar      1 UNK         0.0000 
   8025 C(2)       38.4223   54.5582   17.1221 C.ar      1 UNK         0.0000 
   8026 C(3)       38.4294   53.1664   17.1257 C.ar      1 UNK         0.0000 
   8027 C(4)       37.3593   52.4518   16.5933 C.ar      1 UNK         0.0000 
   8028 C(5)       36.2637   53.1397   16.0731 C.ar      1 UNK         0.0000 
   8029 C(6)       36.2584   54.5273   16.0644 C.ar      1 UNK         0.0000 
   8030 C(7)       38.2315   57.5602   16.5694 C.2       1 UNK         0.0000 
   8031 C(8)       37.7906   58.9943   16.4484 C.3       1 UNK         0.0000 
   8032 H(1)       39.2629   55.1008   17.5368 H         1 UNK         0.0000 
   8033 H(2)       39.2802   52.6499   17.5527 H         1 UNK         0.0000 
   8034 H(3)       35.4206   52.5905   15.6728 H         1 UNK         0.0000 
   8035 H(4)       35.4078   55.0608   15.6585 H         1 UNK         0.0000 
   8036 H(5)       36.5506   50.7079   16.4465 H         1 UNK         0.0000 
   8037 H(6)       36.3147   57.0183   16.3534 H         1 UNK         0.0000 
   8038 H(7)       37.8689   59.4574   17.3976 H         1 UNK         0.0000 
   8039 H(8)       36.7939   59.0924   16.1044 H         1 UNK         0.0000 
   8040 H(9)       38.4711   59.5120   15.8236 H         1 UNK         0.0000 
   8041 O(1)       33.0902   48.6059   22.6641 O.3       1 UNK         0.0000 
   8042 O(2)       35.0880   49.8459   16.6201 O.2       1 UNK         0.0000 
   8043 N(1)       32.9068   49.8966   17.2510 N.am      1 UNK         0.0000 
   8044 C(1)       33.0063   49.5377   18.6139 C.ar      1 UNK         0.0000 
   8045 C(2)       34.0884   48.8518   19.1651 C.ar      1 UNK         0.0000 
   8046 C(3)       34.0955   48.5430   20.5223 C.ar      1 UNK         0.0000 
   8047 C(4)       33.0254   48.9057   21.3362 C.ar      1 UNK         0.0000 
   8048 C(5)       31.9298   49.5641   20.7791 C.ar      1 UNK         0.0000 
   8049 C(6)       31.9245   49.8769   19.4273 C.ar      1 UNK         0.0000 
   8050 C(7)       33.8976   50.0494   16.3575 C.2       1 UNK         0.0000 
   8051 C(8)       33.4567   50.4820   14.9848 C.3       1 UNK         0.0000 
   8052 H(1)       34.9290   48.5661   18.5448 H         1 UNK         0.0000 
   8053 H(2)       34.9463   48.0131   20.9325 H         1 UNK         0.0000 
   8054 H(3)       31.0867   49.8341   21.4028 H         1 UNK         0.0000 
   8055 H(4)       31.0739   50.3900   18.9958 H         1 UNK         0.0000 
   8056 H(5)       32.2167   48.6664   23.0699 H         1 UNK         0.0000 
   8057 H(6)       31.9809   50.1413   16.9335 H         1 UNK         0.0000 
   8058 H(7)       33.5350   49.6576   14.3248 H         1 UNK         0.0000 
   8059 H(8)       32.4600   50.8392   14.9645 H         1 UNK         0.0000 
   8060 H(9)       34.1372   51.2051   14.6168 H         1 UNK         0.0000 
   8061 O(1)       35.8137   59.9274   19.4793 O.3       1 UNK         0.0000 
   8062 O(2)       33.8158   53.7586   19.3635 O.2       1 UNK         0.0000 
   8063 N(1)       35.9970   54.3630   19.5512 N.am      1 UNK         0.0000 
   8064 C(1)       35.8975   55.7714   19.5000 C.ar      1 UNK         0.0000 
   8065 C(2)       34.8154   56.4596   18.9517 C.ar      1 UNK         0.0000 
   8066 C(3)       34.8083   57.8514   18.9482 C.ar      1 UNK         0.0000 
   8067 C(4)       35.8784   58.5660   19.4805 C.ar      1 UNK         0.0000 
   8068 C(5)       36.9740   57.8781   20.0007 C.ar      1 UNK         0.0000 
   8069 C(6)       36.9793   56.4906   20.0094 C.ar      1 UNK         0.0000 
   8070 C(7)       35.0062   53.4577   19.5044 C.2       1 UNK         0.0000 
   8071 C(8)       35.4471   52.0235   19.6254 C.3       1 UNK         0.0000 
   8072 H(1)       33.9748   55.9171   18.5370 H         1 UNK         0.0000 
   8073 H(2)       33.9575   58.3679   18.5211 H         1 UNK         0.0000 
   8074 H(3)       37.8171   58.4274   20.4010 H         1 UNK         0.0000 
   8075 H(4)       37.8299   55.9571   20.4154 H         1 UNK         0.0000 
   8076 H(5)       36.6871   60.3100   19.6273 H         1 UNK         0.0000 
   8077 H(6)       36.9230   53.9995   19.7204 H         1 UNK         0.0000 
   8078 H(7)       35.3688   51.5604   18.6762 H         1 UNK         0.0000 
   8079 H(8)       36.4438   51.9254   19.9694 H         1 UNK         0.0000 
   8080 H(9)       34.7666   51.5059   20.2502 H         1 UNK         0.0000 
   8081 O(1)       31.4798   53.4606   20.5721 O.3       1 UNK         0.0000 
   8082 O(2)       29.4820   52.2205   26.6161 O.2       1 UNK         0.0000 
   8083 N(1)       31.6631   52.1699   25.9852 N.am      1 UNK         0.0000 
   8084 C(1)       31.5636   52.5288   24.6223 C.ar      1 UNK         0.0000 
   8085 C(2)       30.4815   53.2147   24.0711 C.ar      1 UNK         0.0000 
   8086 C(3)       30.4745   53.5235   22.7140 C.ar      1 UNK         0.0000 
   8087 C(4)       31.5445   53.1608   21.9000 C.ar      1 UNK         0.0000 
   8088 C(5)       32.6401   52.5024   22.4571 C.ar      1 UNK         0.0000 
   8089 C(6)       32.6454   52.1896   23.8089 C.ar      1 UNK         0.0000 
   8090 C(7)       30.6723   52.0171   26.8787 C.2       1 UNK         0.0000 
   8091 C(8)       31.1132   51.5844   28.2514 C.3       1 UNK         0.0000 
   8092 H(1)       29.6410   53.5004   24.6914 H         1 UNK         0.0000 
   8093 H(2)       29.6236   54.0534   22.3037 H         1 UNK         0.0000 
   8094 H(3)       33.4833   52.2323   21.8334 H         1 UNK         0.0000 
   8095 H(4)       33.4960   51.6765   24.2404 H         1 UNK         0.0000 
   8096 H(5)       32.3532   53.4001   20.1663 H         1 UNK         0.0000 
   8097 H(6)       32.5891   51.9252   26.3027 H         1 UNK         0.0000 
   8098 H(7)       31.0349   52.4089   28.9114 H         1 UNK         0.0000 
   8099 H(8)       32.1100   51.2273   28.2717 H         1 UNK         0.0000 
   8100 H(9)       30.4327   50.8613   28.6194 H         1 UNK         0.0000 
   8101 O(1)       30.3470   56.8215   23.7569 O.3       1 UNK         0.0000 
   8102 O(2)       32.3449   62.9902   23.8727 O.2       1 UNK         0.0000 
   8103 N(1)       30.1637   62.3858   23.6850 N.am      1 UNK         0.0000 
   8104 C(1)       30.2632   60.9774   23.7362 C.ar      1 UNK         0.0000 
   8105 C(2)       31.3453   60.2892   24.2845 C.ar      1 UNK         0.0000 
   8106 C(3)       31.3524   58.8974   24.2881 C.ar      1 UNK         0.0000 
   8107 C(4)       30.2823   58.1828   23.7557 C.ar      1 UNK         0.0000 
   8108 C(5)       29.1867   58.8707   23.2355 C.ar      1 UNK         0.0000 
   8109 C(6)       29.1814   60.2582   23.2268 C.ar      1 UNK         0.0000 
   8110 C(7)       31.1545   63.2911   23.7318 C.2       1 UNK         0.0000 
   8111 C(8)       30.7136   64.7253   23.6108 C.3       1 UNK         0.0000 
   8112 H(1)       32.1859   60.8317   24.6992 H         1 UNK         0.0000 
   8113 H(2)       32.2032   58.3809   24.7151 H         1 UNK         0.0000 
   8114 H(3)       28.3436   58.3214   22.8352 H         1 UNK         0.0000 
   8115 H(4)       28.3308   60.7917   22.8209 H         1 UNK         0.0000 
   8116 H(5)       29.4736   56.4389   23.6089 H         1 UNK         0.0000 
   8117 H(6)       29.2377   62.7493   23.5158 H         1 UNK         0.0000 
   8118 H(7)       30.7919   65.1884   24.5600 H         1 UNK         0.0000 
   8119 H(8)       29.7169   64.8234   23.2668 H         1 UNK         0.0000 
   8120 H(9)       31.3941   65.2429   22.9860 H         1 UNK         0.0000 
   8121 O(1)       34.6809   51.8263    8.3393 O.3       1 UNK         0.0000 
   8122 O(2)       36.6788   53.0663    2.2953 O.2       1 UNK         0.0000 
   8123 N(1)       34.4976   53.1170    2.9262 N.am      1 UNK         0.0000 
   8124 C(1)       34.5971   52.7581    4.2891 C.ar      1 UNK         0.0000 
   8125 C(2)       35.6792   52.0722    4.8403 C.ar      1 UNK         0.0000 
   8126 C(3)       35.6862   51.7634    6.1975 C.ar      1 UNK         0.0000 
   8127 C(4)       34.6162   52.1261    7.0114 C.ar      1 UNK         0.0000 
   8128 C(5)       33.5206   52.7845    6.4543 C.ar      1 UNK         0.0000 
   8129 C(6)       33.5153   53.0973    5.1025 C.ar      1 UNK         0.0000 
   8130 C(7)       35.4884   53.2698    2.0327 C.2       1 UNK         0.0000 
   8131 C(8)       35.0475   53.7024    0.6600 C.3       1 UNK         0.0000 
   8132 H(1)       36.5198   51.7865    4.2200 H         1 UNK         0.0000 
   8133 H(2)       36.5371   51.2335    6.6077 H         1 UNK         0.0000 
   8134 H(3)       32.6774   53.0545    7.0780 H         1 UNK         0.0000 
   8135 H(4)       32.6647   53.6104    4.6710 H         1 UNK         0.0000 
   8136 H(5)       33.8075   51.8868    8.7451 H         1 UNK         0.0000 
   8137 H(6)       33.5716   53.3617    2.6087 H         1 UNK         0.0000 
   8138 H(7)       35.1258   52.8780    0.0000 H         1 UNK         0.0000 
   8139 H(8)       34.0507   54.0596    0.6397 H         1 UNK         0.0000 
   8140 H(9)       35.7280   54.4255    0.2920 H         1 UNK         0.0000 
   8141 O(1)       37.4044   63.1478    5.1545 O.3       1 UNK         0.0000 
   8142 O(2)       35.4066   56.9790    5.0387 O.2       1 UNK         0.0000 
   8143 N(1)       37.5878   57.5834    5.2264 N.am      1 UNK         0.0000 
   8144 C(1)       37.4883   58.9918    5.1752 C.ar      1 UNK         0.0000 
   8145 C(2)       36.4062   59.6800    4.6269 C.ar      1 UNK         0.0000 
   8146 C(3)       36.3991   61.0718    4.6234 C.ar      1 UNK         0.0000 
   8147 C(4)       37.4692   61.7864    5.1557 C.ar      1 UNK         0.0000 
   8148 C(5)       38.5648   61.0985    5.6759 C.ar      1 UNK         0.0000 
   8149 C(6)       38.5701   59.7110    5.6846 C.ar      1 UNK         0.0000 
   8150 C(7)       36.5970   56.6781    5.1796 C.2       1 UNK         0.0000 
   8151 C(8)       37.0379   55.2439    5.3006 C.3       1 UNK         0.0000 
   8152 H(1)       35.5656   59.1375    4.2122 H         1 UNK         0.0000 
   8153 H(2)       35.5483   61.5883    4.1963 H         1 UNK         0.0000 
   8154 H(3)       39.4079   61.6478    6.0762 H         1 UNK         0.0000 
   8155 H(4)       39.4207   59.1775    6.0906 H         1 UNK         0.0000 
   8156 H(5)       38.2779   63.5304    5.3025 H         1 UNK         0.0000 
   8157 H(6)       38.5137   57.2199    5.3956 H         1 UNK         0.0000 
   8158 H(7)       36.9596   54.7808    4.3514 H         1 UNK         0.0000 
   8159 H(8)       38.0346   55.1458    5.6446 H         1 UNK         0.0000 
   8160 H(9)       36.3574   54.7263    5.9254 H         1 UNK         0.0000 
   8161 O(1)       34.6613   71.3634    6.2473 O.3       1 UNK         0.0000 
   8162 O(2)       32.6635   70.1233   12.2913 O.2       1 UNK         0.0000 
   8163 N(1)       34.8447   70.0726   11.6604 N.am      1 UNK         0.0000 
   8164 C(1)       34.7452   70.4316   10.2975 C.ar      1 UNK         0.0000 
   8165 C(2)       33.6631   71.1174    9.7463 C.ar      1 UNK         0.0000 
   8166 C(3)       33.6560   71.4262    8.3892 C.ar      1 UNK         0.0000 
   8167 C(4)       34.7260   71.0635    7.5752 C.ar      1 UNK         0.0000 
   8168 C(5)       35.8217   70.4052    8.1323 C.ar      1 UNK         0.0000 
   8169 C(6)       35.8270   70.0923    9.4841 C.ar      1 UNK         0.0000 
   8170 C(7)       33.8539   69.9198   12.5539 C.2       1 UNK         0.0000 
   8171 C(8)       34.2947   69.4872   13.9266 C.3       1 UNK         0.0000 
   8172 H(1)       32.8225   71.4031   10.3666 H         1 UNK         0.0000 
   8173 H(2)       32.8052   71.9561    7.9789 H         1 UNK         0.0000 
   8174 H(3)       36.6648   70.1351    7.5086 H         1 UNK         0.0000 
   8175 H(4)       36.6776   69.5792    9.9156 H         1 UNK         0.0000 
   8176 H(5)       35.5348   71.3028    5.8415 H         1 UNK         0.0000 
   8177 H(6)       35.7706   69.8279   11.9779 H         1 UNK         0.0000 
   8178 H(7)       34.2165   70.3116   14.5866 H         1 UNK         0.0000 
   8179 H(8)       35.2915   69.1300   13.9469 H         1 UNK         0.0000 
   8180 H(9)       33.6143   68.7641   14.2946 H         1 UNK         0.0000 
   8181 O(1)       39.0148   60.0419    9.4321 O.3       1 UNK         0.0000 
   8182 O(2)       41.0126   66.2106    9.5479 O.2       1 UNK         0.0000 
   8183 N(1)       38.8315   65.6062    9.3602 N.am      1 UNK         0.0000 
   8184 C(1)       38.9310   64.1978    9.4114 C.ar      1 UNK         0.0000 
   8185 C(2)       40.0131   63.5096    9.9597 C.ar      1 UNK         0.0000 
   8186 C(3)       40.0201   62.1178    9.9633 C.ar      1 UNK         0.0000 
   8187 C(4)       38.9501   61.4032    9.4309 C.ar      1 UNK         0.0000 
   8188 C(5)       37.8545   62.0911    8.9107 C.ar      1 UNK         0.0000 
   8189 C(6)       37.8492   63.4786    8.9020 C.ar      1 UNK         0.0000 
   8190 C(7)       39.8223   66.5115    9.4070 C.2       1 UNK         0.0000 
   8191 C(8)       39.3814   67.9457    9.2860 C.3       1 UNK         0.0000 
   8192 H(1)       40.8536   64.0521   10.3744 H         1 UNK         0.0000 
   8193 H(2)       40.8710   61.6013   10.3903 H         1 UNK         0.0000 
   8194 H(3)       37.0113   61.5418    8.5104 H         1 UNK         0.0000 
   8195 H(4)       36.9986   64.0121    8.4961 H         1 UNK         0.0000 
   8196 H(5)       38.1414   59.6593    9.2841 H         1 UNK         0.0000 
   8197 H(6)       37.9055   65.9697    9.1910 H         1 UNK         0.0000 
   8198 H(7)       39.4597   68.4088   10.2352 H         1 UNK         0.0000 
   8199 H(8)       38.3846   68.0438    8.9420 H         1 UNK         0.0000 
   8200 H(9)       40.0619   68.4633    8.6612 H         1 UNK         0.0000 
   8201 O(1)       29.1947   72.2396   15.5017 O.3       1 UNK         0.0000 
   8202 O(2)       31.1925   73.4796    9.4577 O.2       1 UNK         0.0000 
   8203 N(1)       29.0114   73.5303   10.0886 N.am      1 UNK         0.0000 
   8204 C(1)       29.1108   73.1714   11.4515 C.ar      1 UNK         0.0000 
   8205 C(2)       30.1930   72.4855   12.0027 C.ar      1 UNK         0.0000 
   8206 C(3)       30.2000   72.1767   13.3599 C.ar      1 UNK         0.0000 
   8207 C(4)       29.1300   72.5394   14.1738 C.ar      1 UNK         0.0000 
   8208 C(5)       28.0344   73.1977   13.6167 C.ar      1 UNK         0.0000 
   8209 C(6)       28.0291   73.5106   12.2649 C.ar      1 UNK         0.0000 
   8210 C(7)       30.0022   73.6831    9.1951 C.2       1 UNK         0.0000 
   8211 C(8)       29.5613   74.1157    7.8224 C.3       1 UNK         0.0000 
   8212 H(1)       31.0335   72.1998   11.3824 H         1 UNK         0.0000 
   8213 H(2)       31.0508   71.6468   13.7701 H         1 UNK         0.0000 
   8214 H(3)       27.1912   73.4678   14.2404 H         1 UNK         0.0000 
   8215 H(4)       27.1785   74.0237   11.8334 H         1 UNK         0.0000 
   8216 H(5)       28.3213   72.3001   15.9075 H         1 UNK         0.0000 
   8217 H(6)       28.0854   73.7750    9.7711 H         1 UNK         0.0000 
   8218 H(7)       29.6396   73.2913    7.1624 H         1 UNK         0.0000 
   8219 H(8)       28.5645   74.4729    7.8021 H         1 UNK         0.0000 
   8220 H(9)       30.2418   74.8388    7.4544 H         1 UNK         0.0000 
   8221 O(1)       30.3274   68.8787   12.3169 O.3       1 UNK         0.0000 
   8222 O(2)       28.3296   62.7099   12.2011 O.2       1 UNK         0.0000 
   8223 N(1)       30.5108   63.3143   12.3888 N.am      1 UNK         0.0000 
   8224 C(1)       30.4113   64.7228   12.3376 C.ar      1 UNK         0.0000 
   8225 C(2)       29.3292   65.4110   11.7893 C.ar      1 UNK         0.0000 
   8226 C(3)       29.3221   66.8028   11.7858 C.ar      1 UNK         0.0000 
   8227 C(4)       30.3922   67.5174   12.3181 C.ar      1 UNK         0.0000 
   8228 C(5)       31.4878   66.8295   12.8383 C.ar      1 UNK         0.0000 
   8229 C(6)       31.4931   65.4419   12.8470 C.ar      1 UNK         0.0000 
   8230 C(7)       29.5200   62.4090   12.3420 C.2       1 UNK         0.0000 
   8231 C(8)       29.9609   60.9749   12.4630 C.3       1 UNK         0.0000 
   8232 H(1)       28.4886   64.8685   11.3746 H         1 UNK         0.0000 
   8233 H(2)       28.4713   67.3193   11.3587 H         1 UNK         0.0000 
   8234 H(3)       32.3309   67.3787   13.2386 H         1 UNK         0.0000 
   8235 H(4)       32.3437   64.9084   13.2530 H         1 UNK         0.0000 
   8236 H(5)       31.2009   69.2613   12.4649 H         1 UNK         0.0000 
   8237 H(6)       31.4367   62.9509   12.5580 H         1 UNK         0.0000 
   8238 H(7)       29.8826   60.5118   11.5138 H         1 UNK         0.0000 
   8239 H(8)       30.9576   60.8768   12.8070 H         1 UNK         0.0000 
   8240 H(9)       29.2804   60.4572   13.0878 H         1 UNK         0.0000 
   8241 O(1)       34.6613   77.0943   13.4097 O.3       1 UNK         0.0000 
   8242 O(2)       32.6635   75.8542   19.4537 O.2       1 UNK         0.0000 
   8243 N(1)       34.8447   75.8036   18.8228 N.am      1 UNK         0.0000 
   8244 C(1)       34.7452   76.1625   17.4599 C.ar      1 UNK         0.0000 
   8245 C(2)       33.6631   76.8484   16.9087 C.ar      1 UNK         0.0000 
   8246 C(3)       33.6560   77.1572   15.5516 C.ar      1 UNK         0.0000 
   8247 C(4)       34.7260   76.7945   14.7376 C.ar      1 UNK         0.0000 
   8248 C(5)       35.8217   76.1361   15.2947 C.ar      1 UNK         0.0000 
   8249 C(6)       35.8270   75.8232   16.6465 C.ar      1 UNK         0.0000 
   8250 C(7)       33.8539   75.6508   19.7163 C.2       1 UNK         0.0000 
   8251 C(8)       34.2947   75.2181   21.0890 C.3       1 UNK         0.0000 
   8252 H(1)       32.8225   77.1341   17.5290 H         1 UNK         0.0000 
   8253 H(2)       32.8052   77.6871   15.1413 H         1 UNK         0.0000 
   8254 H(3)       36.6648   75.8660   14.6710 H         1 UNK         0.0000 
   8255 H(4)       36.6776   75.3102   17.0780 H         1 UNK         0.0000 
   8256 H(5)       35.5348   77.0338   13.0039 H         1 UNK         0.0000 
   8257 H(6)       35.7706   75.5589   19.1403 H         1 UNK         0.0000 
   8258 H(7)       34.2165   76.0426   21.7490 H         1 UNK         0.0000 
   8259 H(8)       35.2915   74.8610   21.1093 H         1 UNK         0.0000 
   8260 H(9)       33.6143   74.4950   21.4570 H         1 UNK         0.0000 
   8261 O(1)       39.0148   65.7728   16.5945 O.3       1 UNK         0.0000 
   8262 O(2)       41.0126   71.9416   16.7103 O.2       1 UNK         0.0000 
   8263 N(1)       38.8315   71.3372   16.5226 N.am      1 UNK         0.0000 
   8264 C(1)       38.9310   69.9288   16.5738 C.ar      1 UNK         0.0000 
   8265 C(2)       40.0131   69.2405   17.1221 C.ar      1 UNK         0.0000 
   8266 C(3)       40.0201   67.8487   17.1257 C.ar      1 UNK         0.0000 
   8267 C(4)       38.9501   67.1341   16.5933 C.ar      1 UNK         0.0000 
   8268 C(5)       37.8545   67.8221   16.0731 C.ar      1 UNK         0.0000 
   8269 C(6)       37.8492   69.2096   16.0644 C.ar      1 UNK         0.0000 
   8270 C(7)       39.8223   72.2425   16.5694 C.2       1 UNK         0.0000 
   8271 C(8)       39.3814   73.6766   16.4484 C.3       1 UNK         0.0000 
   8272 H(1)       40.8536   69.7831   17.5368 H         1 UNK         0.0000 
   8273 H(2)       40.8710   67.3323   17.5527 H         1 UNK         0.0000 
   8274 H(3)       37.0113   67.2728   15.6728 H         1 UNK         0.0000 
   8275 H(4)       36.9986   69.7431   15.6585 H         1 UNK         0.0000 
   8276 H(5)       38.1414   65.3902   16.4465 H         1 UNK         0.0000 
   8277 H(6)       37.9055   71.7007   16.3534 H         1 UNK         0.0000 
   8278 H(7)       39.4597   74.1397   17.3976 H         1 UNK         0.0000 
   8279 H(8)       38.3846   73.7748   16.1044 H         1 UNK         0.0000 
   8280 H(9)       40.0619   74.1943   15.8236 H         1 UNK         0.0000 
   8281 O(1)       34.6809   63.2882   22.6641 O.3       1 UNK         0.0000 
   8282 O(2)       36.6788   64.5283   16.6201 O.2       1 UNK         0.0000 
   8283 N(1)       34.4976   64.5789   17.2510 N.am      1 UNK         0.0000 
   8284 C(1)       34.5971   64.2200   18.6139 C.ar      1 UNK         0.0000 
   8285 C(2)       35.6792   63.5341   19.1651 C.ar      1 UNK         0.0000 
   8286 C(3)       35.6862   63.2253   20.5223 C.ar      1 UNK         0.0000 
   8287 C(4)       34.6162   63.5880   21.3362 C.ar      1 UNK         0.0000 
   8288 C(5)       33.5206   64.2464   20.7791 C.ar      1 UNK         0.0000 
   8289 C(6)       33.5153   64.5593   19.4273 C.ar      1 UNK         0.0000 
   8290 C(7)       35.4884   64.7317   16.3575 C.2       1 UNK         0.0000 
   8291 C(8)       35.0475   65.1644   14.9848 C.3       1 UNK         0.0000 
   8292 H(1)       36.5198   63.2484   18.5448 H         1 UNK         0.0000 
   8293 H(2)       36.5371   62.6954   20.9325 H         1 UNK         0.0000 
   8294 H(3)       32.6774   64.5165   21.4028 H         1 UNK         0.0000 
   8295 H(4)       32.6647   65.0723   18.9958 H         1 UNK         0.0000 
   8296 H(5)       33.8075   63.3487   23.0699 H         1 UNK         0.0000 
   8297 H(6)       33.5716   64.8236   16.9335 H         1 UNK         0.0000 
   8298 H(7)       35.1258   64.3399   14.3248 H         1 UNK         0.0000 
   8299 H(8)       34.0507   65.5215   14.9645 H         1 UNK         0.0000 
   8300 H(9)       35.7280   65.8875   14.6168 H         1 UNK         0.0000 
   8301 O(1)       37.4044   74.6097   19.4793 O.3       1 UNK         0.0000 
   8302 O(2)       35.4066   68.4409   19.3635 O.2       1 UNK         0.0000 
   8303 N(1)       37.5878   69.0453   19.5512 N.am      1 UNK         0.0000 
   8304 C(1)       37.4883   70.4537   19.5000 C.ar      1 UNK         0.0000 
   8305 C(2)       36.4062   71.1420   18.9517 C.ar      1 UNK         0.0000 
   8306 C(3)       36.3991   72.5338   18.9482 C.ar      1 UNK         0.0000 
   8307 C(4)       37.4692   73.2484   19.4805 C.ar      1 UNK         0.0000 
   8308 C(5)       38.5648   72.5605   20.0007 C.ar      1 UNK         0.0000 
   8309 C(6)       38.5701   71.1729   20.0094 C.ar      1 UNK         0.0000 
   8310 C(7)       36.5970   68.1400   19.5044 C.2       1 UNK         0.0000 
   8311 C(8)       37.0379   66.7059   19.6254 C.3       1 UNK         0.0000 
   8312 H(1)       35.5656   70.5994   18.5370 H         1 UNK         0.0000 
   8313 H(2)       35.5483   73.0502   18.5211 H         1 UNK         0.0000 
   8314 H(3)       39.4079   73.1097   20.4010 H         1 UNK         0.0000 
   8315 H(4)       39.4207   70.6394   20.4154 H         1 UNK         0.0000 
   8316 H(5)       38.2779   74.9923   19.6273 H         1 UNK         0.0000 
   8317 H(6)       38.5137   68.6818   19.7204 H         1 UNK         0.0000 
   8318 H(7)       36.9596   66.2428   18.6762 H         1 UNK         0.0000 
   8319 H(8)       38.0346   66.6077   19.9694 H         1 UNK         0.0000 
   8320 H(9)       36.3574   66.1882   20.2502 H         1 UNK         0.0000 
   8321 O(1)       33.0706   68.1430   20.5721 O.3       1 UNK         0.0000 
   8322 O(2)       31.0727   66.9029   26.6161 O.2       1 UNK         0.0000 
   8323 N(1)       33.2539   66.8522   25.9852 N.am      1 UNK         0.0000 
   8324 C(1)       33.1544   67.2112   24.6223 C.ar      1 UNK         0.0000 
   8325 C(2)       32.0723   67.8970   24.0711 C.ar      1 UNK         0.0000 
   8326 C(3)       32.0652   68.2058   22.7140 C.ar      1 UNK         0.0000 
   8327 C(4)       33.1353   67.8431   21.9000 C.ar      1 UNK         0.0000 
   8328 C(5)       34.2309   67.1848   22.4571 C.ar      1 UNK         0.0000 
   8329 C(6)       34.2362   66.8719   23.8089 C.ar      1 UNK         0.0000 
   8330 C(7)       32.2631   66.6994   26.8787 C.2       1 UNK         0.0000 
   8331 C(8)       32.7040   66.2668   28.2514 C.3       1 UNK         0.0000 
   8332 H(1)       31.2317   68.1827   24.6914 H         1 UNK         0.0000 
   8333 H(2)       31.2144   68.7357   22.3037 H         1 UNK         0.0000 
   8334 H(3)       35.0740   66.9147   21.8334 H         1 UNK         0.0000 
   8335 H(4)       35.0868   66.3588   24.2404 H         1 UNK         0.0000 
   8336 H(5)       33.9440   68.0824   20.1663 H         1 UNK         0.0000 
   8337 H(6)       34.1798   66.6075   26.3027 H         1 UNK         0.0000 
   8338 H(7)       32.6257   67.0912   28.9114 H         1 UNK         0.0000 
   8339 H(8)       33.7007   65.9096   28.2717 H         1 UNK         0.0000 
   8340 H(9)       32.0235   65.5437   28.6194 H         1 UNK         0.0000 
   8341 O(1)       31.9378   71.5038   23.7569 O.3       1 UNK         0.0000 
   8342 O(2)       33.9356   77.6726   23.8727 O.2       1 UNK         0.0000 
   8343 N(1)       31.7545   77.0682   23.6850 N.am      1 UNK         0.0000 
   8344 C(1)       31.8540   75.6597   23.7362 C.ar      1 UNK         0.0000 
   8345 C(2)       32.9361   74.9715   24.2845 C.ar      1 UNK         0.0000 
   8346 C(3)       32.9431   73.5797   24.2881 C.ar      1 UNK         0.0000 
   8347 C(4)       31.8731   72.8651   23.7557 C.ar      1 UNK         0.0000 
   8348 C(5)       30.7775   73.5530   23.2355 C.ar      1 UNK         0.0000 
   8349 C(6)       30.7722   74.9406   23.2268 C.ar      1 UNK         0.0000 
   8350 C(7)       32.7453   77.9735   23.7318 C.2       1 UNK         0.0000 
   8351 C(8)       32.3044   79.4076   23.6108 C.3       1 UNK         0.0000 
   8352 H(1)       33.7766   75.5140   24.6992 H         1 UNK         0.0000 
   8353 H(2)       33.7940   73.0632   24.7151 H         1 UNK         0.0000 
   8354 H(3)       29.9343   73.0038   22.8352 H         1 UNK         0.0000 
   8355 H(4)       29.9216   75.4741   22.8209 H         1 UNK         0.0000 
   8356 H(5)       31.0644   71.1212   23.6089 H         1 UNK         0.0000 
   8357 H(6)       30.8285   77.4316   23.5158 H         1 UNK         0.0000 
   8358 H(7)       32.3827   79.8707   24.5600 H         1 UNK         0.0000 
   8359 H(8)       31.3076   79.5057   23.2668 H         1 UNK         0.0000 
   8360 H(9)       32.9849   79.9253   22.9860 H         1 UNK         0.0000 
   8361 O(1)       36.2717   66.5086    8.3393 O.3       1 UNK         0.0000 
   8362 O(2)       38.2695   67.7487    2.2953 O.2       1 UNK         0.0000 
   8363 N(1)       36.0884   67.7993    2.9262 N.am      1 UNK         0.0000 
   8364 C(1)       36.1878   67.4404    4.2891 C.ar      1 UNK         0.0000 
   8365 C(2)       37.2700   66.7545    4.8403 C.ar      1 UNK         0.0000 
   8366 C(3)       37.2770   66.4457    6.1975 C.ar      1 UNK         0.0000 
   8367 C(4)       36.2070   66.8084    7.0114 C.ar      1 UNK         0.0000 
   8368 C(5)       35.1114   67.4668    6.4543 C.ar      1 UNK         0.0000 
   8369 C(6)       35.1061   67.7797    5.1025 C.ar      1 UNK         0.0000 
   8370 C(7)       37.0792   67.9521    2.0327 C.2       1 UNK         0.0000 
   8371 C(8)       36.6383   68.3848    0.6600 C.3       1 UNK         0.0000 
   8372 H(1)       38.1105   66.4688    4.2200 H         1 UNK         0.0000 
   8373 H(2)       38.1278   65.9158    6.6077 H         1 UNK         0.0000 
   8374 H(3)       34.2682   67.7369    7.0780 H         1 UNK         0.0000 
   8375 H(4)       34.2555   68.2927    4.6710 H         1 UNK         0.0000 
   8376 H(5)       35.3983   66.5691    8.7451 H         1 UNK         0.0000 
   8377 H(6)       35.1624   68.0440    2.6087 H         1 UNK         0.0000 
   8378 H(7)       36.7166   67.5603    0.0000 H         1 UNK         0.0000 
   8379 H(8)       35.6415   68.7419    0.6397 H         1 UNK         0.0000 
   8380 H(9)       37.3188   69.1079    0.2920 H         1 UNK         0.0000 
   8381 O(1)       38.9952   77.8301    5.1545 O.3       1 UNK         0.0000 
   8382 O(2)       36.9974   71.6613    5.0387 O.2       1 UNK         0.0000 
   8383 N(1)       39.1786   72.2657    5.2264 N.am      1 UNK         0.0000 
   8384 C(1)       39.0791   73.6741    5.1752 C.ar      1 UNK         0.0000 
   8385 C(2)       37.9969   74.3624    4.6269 C.ar      1 UNK         0.0000 
   8386 C(3)       37.9899   75.7542    4.6234 C.ar      1 UNK         0.0000 
   8387 C(4)       39.0599   76.4688    5.1557 C.ar      1 UNK         0.0000 
   8388 C(5)       40.1555   75.7809    5.6759 C.ar      1 UNK         0.0000 
   8389 C(6)       40.1609   74.3933    5.6846 C.ar      1 UNK         0.0000 
   8390 C(7)       38.1878   71.3604    5.1796 C.2       1 UNK         0.0000 
   8391 C(8)       38.6286   69.9263    5.3006 C.3       1 UNK         0.0000 
   8392 H(1)       37.1564   73.8198    4.2122 H         1 UNK         0.0000 
   8393 H(2)       37.1391   76.2706    4.1963 H         1 UNK         0.0000 
   8394 H(3)       40.9987   76.3301    6.0762 H         1 UNK         0.0000 
   8395 H(4)       41.0115   73.8598    6.0906 H         1 UNK         0.0000 
   8396 H(5)       39.8687   78.2127    5.3025 H         1 UNK         0.0000 
   8397 H(6)       40.1045   71.9022    5.3956 H         1 UNK         0.0000 
   8398 H(7)       38.5504   69.4632    4.3514 H         1 UNK         0.0000 
   8399 H(8)       39.6254   69.8281    5.6446 H         1 UNK         0.0000 
   8400 H(9)       37.9482   69.4086    5.9254 H         1 UNK         0.0000 
   8401 O(1)       36.2521   86.0457    6.2473 O.3       1 UNK         0.0000 
   8402 O(2)       34.2543   84.8056   12.2913 O.2       1 UNK         0.0000 
   8403 N(1)       36.4354   84.7550   11.6604 N.am      1 UNK         0.0000 
   8404 C(1)       36.3360   85.1139   10.2975 C.ar      1 UNK         0.0000 
   8405 C(2)       35.2538   85.7998    9.7463 C.ar      1 UNK         0.0000 
   8406 C(3)       35.2468   86.1085    8.3892 C.ar      1 UNK         0.0000 
   8407 C(4)       36.3168   85.7459    7.5752 C.ar      1 UNK         0.0000 
   8408 C(5)       37.4124   85.0875    8.1323 C.ar      1 UNK         0.0000 
   8409 C(6)       37.4177   84.7746    9.4841 C.ar      1 UNK         0.0000 
   8410 C(7)       35.4447   84.6021   12.5539 C.2       1 UNK         0.0000 
   8411 C(8)       35.8855   84.1695   13.9266 C.3       1 UNK         0.0000 
   8412 H(1)       34.4133   86.0854   10.3666 H         1 UNK         0.0000 
   8413 H(2)       34.3960   86.6384    7.9789 H         1 UNK         0.0000 
   8414 H(3)       38.2556   84.8174    7.5086 H         1 UNK         0.0000 
   8415 H(4)       38.2684   84.2615    9.9156 H         1 UNK         0.0000 
   8416 H(5)       37.1256   85.9852    5.8415 H         1 UNK         0.0000 
   8417 H(6)       37.3614   84.5102   11.9779 H         1 UNK         0.0000 
   8418 H(7)       35.8073   84.9940   14.5866 H         1 UNK         0.0000 
   8419 H(8)       36.8823   83.8124   13.9469 H         1 UNK         0.0000 
   8420 H(9)       35.2050   83.4464   14.2946 H         1 UNK         0.0000 
   8421 O(1)       40.6056   74.7242    9.4321 O.3       1 UNK         0.0000 
   8422 O(2)       42.6034   80.8930    9.5479 O.2       1 UNK         0.0000 
   8423 N(1)       40.4223   80.2886    9.3602 N.am      1 UNK         0.0000 
   8424 C(1)       40.5217   78.8801    9.4114 C.ar      1 UNK         0.0000 
   8425 C(2)       41.6039   78.1919    9.9597 C.ar      1 UNK         0.0000 
   8426 C(3)       41.6109   76.8001    9.9633 C.ar      1 UNK         0.0000 
   8427 C(4)       40.5409   76.0855    9.4309 C.ar      1 UNK         0.0000 
   8428 C(5)       39.4453   76.7734    8.9107 C.ar      1 UNK         0.0000 
   8429 C(6)       39.4400   78.1610    8.9020 C.ar      1 UNK         0.0000 
   8430 C(7)       41.4131   81.1939    9.4070 C.2       1 UNK         0.0000 
   8431 C(8)       40.9722   82.6280    9.2860 C.3       1 UNK         0.0000 
   8432 H(1)       42.4444   78.7344   10.3744 H         1 UNK         0.0000 
   8433 H(2)       42.4617   76.2836   10.3903 H         1 UNK         0.0000 
   8434 H(3)       38.6021   76.2242    8.5104 H         1 UNK         0.0000 
   8435 H(4)       38.5894   78.6945    8.4961 H         1 UNK         0.0000 
   8436 H(5)       39.7322   74.3416    9.2841 H         1 UNK         0.0000 
   8437 H(6)       39.4963   80.6520    9.1910 H         1 UNK         0.0000 
   8438 H(7)       41.0505   83.0911   10.2352 H         1 UNK         0.0000 
   8439 H(8)       39.9754   82.7261    8.9420 H         1 UNK         0.0000 
   8440 H(9)       41.6527   83.1457    8.6612 H         1 UNK         0.0000 
   8441 O(1)       30.7855   86.9219   15.5017 O.3       1 UNK         0.0000 
   8442 O(2)       32.7833   88.1620    9.4577 O.2       1 UNK         0.0000 
   8443 N(1)       30.6022   88.2126   10.0886 N.am      1 UNK         0.0000 
   8444 C(1)       30.7016   87.8537   11.4515 C.ar      1 UNK         0.0000 
   8445 C(2)       31.7838   87.1678   12.0027 C.ar      1 UNK         0.0000 
   8446 C(3)       31.7908   86.8590   13.3599 C.ar      1 UNK         0.0000 
   8447 C(4)       30.7208   87.2217   14.1738 C.ar      1 UNK         0.0000 
   8448 C(5)       29.6252   87.8801   13.6167 C.ar      1 UNK         0.0000 
   8449 C(6)       29.6199   88.1930   12.2649 C.ar      1 UNK         0.0000 
   8450 C(7)       31.5929   88.3654    9.1951 C.2       1 UNK         0.0000 
   8451 C(8)       31.1521   88.7981    7.8224 C.3       1 UNK         0.0000 
   8452 H(1)       32.6243   86.8821   11.3824 H         1 UNK         0.0000 
   8453 H(2)       32.6416   86.3291   13.7701 H         1 UNK         0.0000 
   8454 H(3)       28.7820   88.1502   14.2404 H         1 UNK         0.0000 
   8455 H(4)       28.7693   88.7060   11.8334 H         1 UNK         0.0000 
   8456 H(5)       29.9121   86.9824   15.9075 H         1 UNK         0.0000 
   8457 H(6)       29.6762   88.4573    9.7711 H         1 UNK         0.0000 
   8458 H(7)       31.2304   87.9736    7.1624 H         1 UNK         0.0000 
   8459 H(8)       30.1553   89.1552    7.8021 H         1 UNK         0.0000 
   8460 H(9)       31.8326   89.5212    7.4544 H         1 UNK         0.0000 
   8461 O(1)       31.9182   83.5611   12.3169 O.3       1 UNK         0.0000 
   8462 O(2)       29.9204   77.3923   12.2011 O.2       1 UNK         0.0000 
   8463 N(1)       32.1016   77.9967   12.3888 N.am      1 UNK         0.0000 
   8464 C(1)       32.0021   79.4051   12.3376 C.ar      1 UNK         0.0000 
   8465 C(2)       30.9199   80.0933   11.7893 C.ar      1 UNK         0.0000 
   8466 C(3)       30.9129   81.4851   11.7858 C.ar      1 UNK         0.0000 
   8467 C(4)       31.9829   82.1997   12.3181 C.ar      1 UNK         0.0000 
   8468 C(5)       33.0785   81.5118   12.8383 C.ar      1 UNK         0.0000 
   8469 C(6)       33.0839   80.1243   12.8470 C.ar      1 UNK         0.0000 
   8470 C(7)       31.1108   77.0914   12.3420 C.2       1 UNK         0.0000 
   8471 C(8)       31.5516   75.6572   12.4630 C.3       1 UNK         0.0000 
   8472 H(1)       30.0794   79.5508   11.3746 H         1 UNK         0.0000 
   8473 H(2)       30.0621   82.0016   11.3587 H         1 UNK         0.0000 
   8474 H(3)       33.9217   82.0611   13.2386 H         1 UNK         0.0000 
   8475 H(4)       33.9345   79.5908   13.2530 H         1 UNK         0.0000 
   8476 H(5)       32.7917   83.9437   12.4649 H         1 UNK         0.0000 
   8477 H(6)       33.0275   77.6332   12.5580 H         1 UNK         0.0000 
   8478 H(7)       31.4734   75.1941   11.5138 H         1 UNK         0.0000 
   8479 H(8)       32.5484   75.5591   12.8070 H         1 UNK         0.0000 
   8480 H(9)       30.8712   75.1396   13.0878 H         1 UNK         0.0000 
   8481 O(1)       36.2521   91.7766   13.4097 O.3       1 UNK         0.0000 
   8482 O(2)       34.2543   90.5366   19.4537 O.2       1 UNK         0.0000 
   8483 N(1)       36.4354   90.4859   18.8228 N.am      1 UNK         0.0000 
   8484 C(1)       36.3360   90.8448   17.4599 C.ar      1 UNK         0.0000 
   8485 C(2)       35.2538   91.5307   16.9087 C.ar      1 UNK         0.0000 
   8486 C(3)       35.2468   91.8395   15.5516 C.ar      1 UNK         0.0000 
   8487 C(4)       36.3168   91.4768   14.7376 C.ar      1 UNK         0.0000 
   8488 C(5)       37.4124   90.8185   15.2947 C.ar      1 UNK         0.0000 
   8489 C(6)       37.4177   90.5056   16.6465 C.ar      1 UNK         0.0000 
   8490 C(7)       35.4447   90.3331   19.7163 C.2       1 UNK         0.0000 
   8491 C(8)       35.8855   89.9005   21.0890 C.3       1 UNK         0.0000 
   8492 H(1)       34.4133   91.8164   17.5290 H         1 UNK         0.0000 
   8493 H(2)       34.3960   92.3694   15.1413 H         1 UNK         0.0000 
   8494 H(3)       38.2556   90.5484   14.6710 H         1 UNK         0.0000 
   8495 H(4)       38.2684   89.9925   17.0780 H         1 UNK         0.0000 
   8496 H(5)       37.1256   91.7161   13.0039 H         1 UNK         0.0000 
   8497 H(6)       37.3614   90.2412   19.1403 H         1 UNK         0.0000 
   8498 H(7)       35.8073   90.7249   21.7490 H         1 UNK         0.0000 
   8499 H(8)       36.8823   89.5433   21.1093 H         1 UNK         0.0000 
   8500 H(9)       35.2050   89.1774   21.4570 H         1 UNK         0.0000 
   8501 O(1)       40.6056   80.4552   16.5945 O.3       1 UNK         0.0000 
   8502 O(2)       42.6034   86.6239   16.7103 O.2       1 UNK         0.0000 
   8503 N(1)       40.4223   86.0195   16.5226 N.am      1 UNK         0.0000 
   8504 C(1)       40.5217   84.6111   16.5738 C.ar      1 UNK         0.0000 
   8505 C(2)       41.6039   83.9229   17.1221 C.ar      1 UNK         0.0000 
   8506 C(3)       41.6109   82.5311   17.1257 C.ar      1 UNK         0.0000 
   8507 C(4)       40.5409   81.8165   16.5933 C.ar      1 UNK         0.0000 
   8508 C(5)       39.4453   82.5044   16.0731 C.ar      1 UNK         0.0000 
   8509 C(6)       39.4400   83.8919   16.0644 C.ar      1 UNK         0.0000 
   8510 C(7)       41.4131   86.9248   16.5694 C.2       1 UNK         0.0000 
   8511 C(8)       40.9722   88.3590   16.4484 C.3       1 UNK         0.0000 
   8512 H(1)       42.4444   84.4654   17.5368 H         1 UNK         0.0000 
   8513 H(2)       42.4617   82.0146   17.5527 H         1 UNK         0.0000 
   8514 H(3)       38.6021   81.9551   15.6728 H         1 UNK         0.0000 
   8515 H(4)       38.5894   84.4254   15.6585 H         1 UNK         0.0000 
   8516 H(5)       39.7322   80.0725   16.4465 H         1 UNK         0.0000 
   8517 H(6)       39.4963   86.3830   16.3534 H         1 UNK         0.0000 
   8518 H(7)       41.0505   88.8221   17.3976 H         1 UNK         0.0000 
   8519 H(8)       39.9754   88.4571   16.1044 H         1 UNK         0.0000 
   8520 H(9)       41.6527   88.8766   15.8236 H         1 UNK         0.0000 
   8521 O(1)       36.2717   77.9705   22.6641 O.3       1 UNK         0.0000 
   8522 O(2)       38.2695   79.2106   16.6201 O.2       1 UNK         0.0000 
   8523 N(1)       36.0884   79.2612   17.2510 N.am      1 UNK         0.0000 
   8524 C(1)       36.1878   78.9023   18.6139 C.ar      1 UNK         0.0000 
   8525 C(2)       37.2700   78.2164   19.1651 C.ar      1 UNK         0.0000 
   8526 C(3)       37.2770   77.9077   20.5223 C.ar      1 UNK         0.0000 
   8527 C(4)       36.2070   78.2703   21.3362 C.ar      1 UNK         0.0000 
   8528 C(5)       35.1114   78.9287   20.7791 C.ar      1 UNK         0.0000 
   8529 C(6)       35.1061   79.2416   19.4273 C.ar      1 UNK         0.0000 
   8530 C(7)       37.0792   79.4141   16.3575 C.2       1 UNK         0.0000 
   8531 C(8)       36.6383   79.8467   14.9848 C.3       1 UNK         0.0000 
   8532 H(1)       38.1105   77.9308   18.5448 H         1 UNK         0.0000 
   8533 H(2)       38.1278   77.3778   20.9325 H         1 UNK         0.0000 
   8534 H(3)       34.2682   79.1988   21.4028 H         1 UNK         0.0000 
   8535 H(4)       34.2555   79.7547   18.9958 H         1 UNK         0.0000 
   8536 H(5)       35.3983   78.0310   23.0699 H         1 UNK         0.0000 
   8537 H(6)       35.1624   79.5060   16.9335 H         1 UNK         0.0000 
   8538 H(7)       36.7166   79.0222   14.3248 H         1 UNK         0.0000 
   8539 H(8)       35.6415   80.2038   14.9645 H         1 UNK         0.0000 
   8540 H(9)       37.3188   80.5698   14.6168 H         1 UNK         0.0000 
   8541 O(1)       38.9952   89.2920   19.4793 O.3       1 UNK         0.0000 
   8542 O(2)       36.9974   83.1232   19.3635 O.2       1 UNK         0.0000 
   8543 N(1)       39.1786   83.7276   19.5512 N.am      1 UNK         0.0000 
   8544 C(1)       39.0791   85.1361   19.5000 C.ar      1 UNK         0.0000 
   8545 C(2)       37.9969   85.8243   18.9517 C.ar      1 UNK         0.0000 
   8546 C(3)       37.9899   87.2161   18.9482 C.ar      1 UNK         0.0000 
   8547 C(4)       39.0599   87.9307   19.4805 C.ar      1 UNK         0.0000 
   8548 C(5)       40.1555   87.2428   20.0007 C.ar      1 UNK         0.0000 
   8549 C(6)       40.1609   85.8552   20.0094 C.ar      1 UNK         0.0000 
   8550 C(7)       38.1878   82.8223   19.5044 C.2       1 UNK         0.0000 
   8551 C(8)       38.6286   81.3882   19.6254 C.3       1 UNK         0.0000 
   8552 H(1)       37.1564   85.2818   18.5370 H         1 UNK         0.0000 
   8553 H(2)       37.1391   87.7326   18.5211 H         1 UNK         0.0000 
   8554 H(3)       40.9987   87.7920   20.4010 H         1 UNK         0.0000 
   8555 H(4)       41.0115   85.3217   20.4154 H         1 UNK         0.0000 
   8556 H(5)       39.8687   89.6746   19.6273 H         1 UNK         0.0000 
   8557 H(6)       40.1045   83.3642   19.7204 H         1 UNK         0.0000 
   8558 H(7)       38.5504   80.9251   18.6762 H         1 UNK         0.0000 
   8559 H(8)       39.6254   81.2901   19.9694 H         1 UNK         0.0000 
   8560 H(9)       37.9482   80.8705   20.2502 H         1 UNK         0.0000 
   8561 O(1)       34.6613   82.8253   20.5721 O.3       1 UNK         0.0000 
   8562 O(2)       32.6635   81.5852   26.6161 O.2       1 UNK         0.0000 
   8563 N(1)       34.8447   81.5346   25.9852 N.am      1 UNK         0.0000 
   8564 C(1)       34.7452   81.8935   24.6223 C.ar      1 UNK         0.0000 
   8565 C(2)       33.6631   82.5794   24.0711 C.ar      1 UNK         0.0000 
   8566 C(3)       33.6560   82.8881   22.7140 C.ar      1 UNK         0.0000 
   8567 C(4)       34.7260   82.5255   21.9000 C.ar      1 UNK         0.0000 
   8568 C(5)       35.8217   81.8671   22.4571 C.ar      1 UNK         0.0000 
   8569 C(6)       35.8270   81.5542   23.8089 C.ar      1 UNK         0.0000 
   8570 C(7)       33.8539   81.3817   26.8787 C.2       1 UNK         0.0000 
   8571 C(8)       34.2947   80.9491   28.2514 C.3       1 UNK         0.0000 
   8572 H(1)       32.8225   82.8650   24.6914 H         1 UNK         0.0000 
   8573 H(2)       32.8052   83.4180   22.3037 H         1 UNK         0.0000 
   8574 H(3)       36.6648   81.5970   21.8334 H         1 UNK         0.0000 
   8575 H(4)       36.6776   81.0412   24.2404 H         1 UNK         0.0000 
   8576 H(5)       35.5348   82.7648   20.1663 H         1 UNK         0.0000 
   8577 H(6)       35.7706   81.2898   26.3027 H         1 UNK         0.0000 
   8578 H(7)       34.2165   81.7736   28.9114 H         1 UNK         0.0000 
   8579 H(8)       35.2915   80.5920   28.2717 H         1 UNK         0.0000 
   8580 H(9)       33.6143   80.2260   28.6194 H         1 UNK         0.0000 
   8581 O(1)       33.5286   86.1861   23.7569 O.3       1 UNK         0.0000 
   8582 O(2)       35.5264   92.3549   23.8727 O.2       1 UNK         0.0000 
   8583 N(1)       33.3453   91.7505   23.6850 N.am      1 UNK         0.0000 
   8584 C(1)       33.4447   90.3421   23.7362 C.ar      1 UNK         0.0000 
   8585 C(2)       34.5269   89.6538   24.2845 C.ar      1 UNK         0.0000 
   8586 C(3)       34.5339   88.2620   24.2881 C.ar      1 UNK         0.0000 
   8587 C(4)       33.4639   87.5474   23.7557 C.ar      1 UNK         0.0000 
   8588 C(5)       32.3683   88.2353   23.2355 C.ar      1 UNK         0.0000 
   8589 C(6)       32.3630   89.6229   23.2268 C.ar      1 UNK         0.0000 
   8590 C(7)       34.3361   92.6558   23.7318 C.2       1 UNK         0.0000 
   8591 C(8)       33.8952   94.0899   23.6108 C.3       1 UNK         0.0000 
   8592 H(1)       35.3674   90.1964   24.6992 H         1 UNK         0.0000 
   8593 H(2)       35.3847   87.7456   24.7151 H         1 UNK         0.0000 
   8594 H(3)       31.5251   87.6861   22.8352 H         1 UNK         0.0000 
   8595 H(4)       31.5124   90.1564   22.8209 H         1 UNK         0.0000 
   8596 H(5)       32.6552   85.8035   23.6089 H         1 UNK         0.0000 
   8597 H(6)       32.4193   92.1140   23.5158 H         1 UNK         0.0000 
   8598 H(7)       33.9735   94.5530   24.5600 H         1 UNK         0.0000 
   8599 H(8)       32.8984   94.1881   23.2668 H         1 UNK         0.0000 
   8600 H(9)       34.5757   94.6076   22.9860 H         1 UNK         0.0000 
   8601 O(1)       37.8625   81.1909    8.3393 O.3       1 UNK         0.0000 
   8602 O(2)       39.8603   82.4310    2.2953 O.2       1 UNK         0.0000 
   8603 N(1)       37.6792   82.4816    2.9262 N.am      1 UNK         0.0000 
   8604 C(1)       37.7786   82.1227    4.2891 C.ar      1 UNK         0.0000 
   8605 C(2)       38.8608   81.4368    4.8403 C.ar      1 UNK         0.0000 
   8606 C(3)       38.8678   81.1281    6.1975 C.ar      1 UNK         0.0000 
   8607 C(4)       37.7978   81.4907    7.0114 C.ar      1 UNK         0.0000 
   8608 C(5)       36.7022   82.1491    6.4543 C.ar      1 UNK         0.0000 
   8609 C(6)       36.6969   82.4620    5.1025 C.ar      1 UNK         0.0000 
   8610 C(7)       38.6700   82.6345    2.0327 C.2       1 UNK         0.0000 
   8611 C(8)       38.2291   83.0671    0.6600 C.3       1 UNK         0.0000 
   8612 H(1)       39.7013   81.1512    4.2200 H         1 UNK         0.0000 
   8613 H(2)       39.7186   80.5982    6.6077 H         1 UNK         0.0000 
   8614 H(3)       35.8590   82.4192    7.0780 H         1 UNK         0.0000 
   8615 H(4)       35.8463   82.9751    4.6710 H         1 UNK         0.0000 
   8616 H(5)       36.9891   81.2514    8.7451 H         1 UNK         0.0000 
   8617 H(6)       36.7532   82.7264    2.6087 H         1 UNK         0.0000 
   8618 H(7)       38.3074   82.2426    0.0000 H         1 UNK         0.0000 
   8619 H(8)       37.2323   83.4242    0.6397 H         1 UNK         0.0000 
   8620 H(9)       38.9096   83.7902    0.2920 H         1 UNK         0.0000 
   8621 O(1)       40.5860   92.5124    5.1545 O.3       1 UNK         0.0000 
   8622 O(2)       38.5882   86.3436    5.0387 O.2       1 UNK         0.0000 
   8623 N(1)       40.7693   86.9480    5.2264 N.am      1 UNK         0.0000 
   8624 C(1)       40.6699   88.3565    5.1752 C.ar      1 UNK         0.0000 
   8625 C(2)       39.5877   89.0447    4.6269 C.ar      1 UNK         0.0000 
   8626 C(3)       39.5807   90.4365    4.6234 C.ar      1 UNK         0.0000 
   8627 C(4)       40.6507   91.1511    5.1557 C.ar      1 UNK         0.0000 
   8628 C(5)       41.7463   90.4632    5.6759 C.ar      1 UNK         0.0000 
   8629 C(6)       41.7516   89.0756    5.6846 C.ar      1 UNK         0.0000 
   8630 C(7)       39.7786   86.0427    5.1796 C.2       1 UNK         0.0000 
   8631 C(8)       40.2194   84.6086    5.3006 C.3       1 UNK         0.0000 
   8632 H(1)       38.7472   88.5022    4.2122 H         1 UNK         0.0000 
   8633 H(2)       38.7299   90.9530    4.1963 H         1 UNK         0.0000 
   8634 H(3)       42.5895   91.0124    6.0762 H         1 UNK         0.0000 
   8635 H(4)       42.6023   88.5421    6.0906 H         1 UNK         0.0000 
   8636 H(5)       41.4594   92.8950    5.3025 H         1 UNK         0.0000 
   8637 H(6)       41.6953   86.5846    5.3956 H         1 UNK         0.0000 
   8638 H(7)       40.1412   84.1455    4.3514 H         1 UNK         0.0000 
   8639 H(8)       41.2162   84.5105    5.6446 H         1 UNK         0.0000 
   8640 H(9)       39.5389   84.0909    5.9254 H         1 UNK         0.0000 
   8641 O(1)       37.8429  100.7280    6.2473 O.3       1 UNK         0.0000 
   8642 O(2)       35.8451   99.4879   12.2913 O.2       1 UNK         0.0000 
   8643 N(1)       38.0262   99.4373   11.6604 N.am      1 UNK         0.0000 
   8644 C(1)       37.9268   99.7962   10.2975 C.ar      1 UNK         0.0000 
   8645 C(2)       36.8446  100.4821    9.7463 C.ar      1 UNK         0.0000 
   8646 C(3)       36.8376  100.7909    8.3892 C.ar      1 UNK         0.0000 
   8647 C(4)       37.9076  100.4282    7.5752 C.ar      1 UNK         0.0000 
   8648 C(5)       39.0032   99.7698    8.1323 C.ar      1 UNK         0.0000 
   8649 C(6)       39.0085   99.4569    9.4841 C.ar      1 UNK         0.0000 
   8650 C(7)       37.0355   99.2845   12.5539 C.2       1 UNK         0.0000 
   8651 C(8)       37.4763   98.8518   13.9266 C.3       1 UNK         0.0000 
   8652 H(1)       36.0041  100.7678   10.3666 H         1 UNK         0.0000 
   8653 H(2)       35.9868  101.3208    7.9789 H         1 UNK         0.0000 
   8654 H(3)       39.8464   99.4997    7.5086 H         1 UNK         0.0000 
   8655 H(4)       39.8591   98.9439    9.9156 H         1 UNK         0.0000 
   8656 H(5)       38.7163  100.6675    5.8415 H         1 UNK         0.0000 
   8657 H(6)       38.9522   99.1926   11.9779 H         1 UNK         0.0000 
   8658 H(7)       37.3980   99.6763   14.5866 H         1 UNK         0.0000 
   8659 H(8)       38.4731   98.4947   13.9469 H         1 UNK         0.0000 
   8660 H(9)       36.7958   98.1287   14.2946 H         1 UNK         0.0000 
   8661 O(1)       42.1964   89.4065    9.4321 O.3       1 UNK         0.0000 
   8662 O(2)       44.1942   95.5753    9.5479 O.2       1 UNK         0.0000 
   8663 N(1)       42.0131   94.9709    9.3602 N.am      1 UNK         0.0000 
   8664 C(1)       42.1125   93.5625    9.4114 C.ar      1 UNK         0.0000 
   8665 C(2)       43.1947   92.8742    9.9597 C.ar      1 UNK         0.0000 
   8666 C(3)       43.2017   91.4824    9.9633 C.ar      1 UNK         0.0000 
   8667 C(4)       42.1317   90.7678    9.4309 C.ar      1 UNK         0.0000 
   8668 C(5)       41.0361   91.4557    8.9107 C.ar      1 UNK         0.0000 
   8669 C(6)       41.0308   92.8433    8.9020 C.ar      1 UNK         0.0000 
   8670 C(7)       43.0038   95.8762    9.4070 C.2       1 UNK         0.0000 
   8671 C(8)       42.5630   97.3103    9.2860 C.3       1 UNK         0.0000 
   8672 H(1)       44.0352   93.4168   10.3744 H         1 UNK         0.0000 
   8673 H(2)       44.0525   90.9660   10.3903 H         1 UNK         0.0000 
   8674 H(3)       40.1929   90.9065    8.5104 H         1 UNK         0.0000 
   8675 H(4)       40.1801   93.3768    8.4961 H         1 UNK         0.0000 
   8676 H(5)       41.3230   89.0239    9.2841 H         1 UNK         0.0000 
   8677 H(6)       41.0871   95.3344    9.1910 H         1 UNK         0.0000 
   8678 H(7)       42.6412   97.7734   10.2352 H         1 UNK         0.0000 
   8679 H(8)       41.5662   97.4085    8.9420 H         1 UNK         0.0000 
   8680 H(9)       43.2435   97.8280    8.6612 H         1 UNK         0.0000 
   8681 O(1)       32.3763  101.6042   15.5017 O.3       1 UNK         0.0000 
   8682 O(2)       34.3741  102.8443    9.4577 O.2       1 UNK         0.0000 
   8683 N(1)       32.1930  102.8949   10.0886 N.am      1 UNK         0.0000 
   8684 C(1)       32.2924  102.5360   11.4515 C.ar      1 UNK         0.0000 
   8685 C(2)       33.3746  101.8501   12.0027 C.ar      1 UNK         0.0000 
   8686 C(3)       33.3816  101.5414   13.3599 C.ar      1 UNK         0.0000 
   8687 C(4)       32.3116  101.9040   14.1738 C.ar      1 UNK         0.0000 
   8688 C(5)       31.2160  102.5624   13.6167 C.ar      1 UNK         0.0000 
   8689 C(6)       31.2107  102.8753   12.2649 C.ar      1 UNK         0.0000 
   8690 C(7)       33.1837  103.0478    9.1951 C.2       1 UNK         0.0000 
   8691 C(8)       32.7429  103.4804    7.8224 C.3       1 UNK         0.0000 
   8692 H(1)       34.2151  101.5645   11.3824 H         1 UNK         0.0000 
   8693 H(2)       34.2324  101.0115   13.7701 H         1 UNK         0.0000 
   8694 H(3)       30.3728  102.8325   14.2404 H         1 UNK         0.0000 
   8695 H(4)       30.3600  103.3883   11.8334 H         1 UNK         0.0000 
   8696 H(5)       31.5028  101.6647   15.9075 H         1 UNK         0.0000 
   8697 H(6)       31.2670  103.1397    9.7711 H         1 UNK         0.0000 
   8698 H(7)       32.8211  102.6559    7.1624 H         1 UNK         0.0000 
   8699 H(8)       31.7461  103.8375    7.8021 H         1 UNK         0.0000 
   8700 H(9)       33.4234  104.2035    7.4544 H         1 UNK         0.0000 
   8701 O(1)       33.5090   98.2434   12.3169 O.3       1 UNK         0.0000 
   8702 O(2)       31.5112   92.0746   12.2011 O.2       1 UNK         0.0000 
   8703 N(1)       33.6923   92.6790   12.3888 N.am      1 UNK         0.0000 
   8704 C(1)       33.5929   94.0874   12.3376 C.ar      1 UNK         0.0000 
   8705 C(2)       32.5107   94.7757   11.7893 C.ar      1 UNK         0.0000 
   8706 C(3)       32.5037   96.1675   11.7858 C.ar      1 UNK         0.0000 
   8707 C(4)       33.5737   96.8821   12.3181 C.ar      1 UNK         0.0000 
   8708 C(5)       34.6693   96.1941   12.8383 C.ar      1 UNK         0.0000 
   8709 C(6)       34.6746   94.8066   12.8470 C.ar      1 UNK         0.0000 
   8710 C(7)       32.7016   91.7737   12.3420 C.2       1 UNK         0.0000 
   8711 C(8)       33.1424   90.3396   12.4630 C.3       1 UNK         0.0000 
   8712 H(1)       31.6702   94.2331   11.3746 H         1 UNK         0.0000 
   8713 H(2)       31.6529   96.6839   11.3587 H         1 UNK         0.0000 
   8714 H(3)       35.5125   96.7434   13.2386 H         1 UNK         0.0000 
   8715 H(4)       35.5253   94.2731   13.2530 H         1 UNK         0.0000 
   8716 H(5)       34.3824   98.6260   12.4649 H         1 UNK         0.0000 
   8717 H(6)       34.6183   92.3155   12.5580 H         1 UNK         0.0000 
   8718 H(7)       33.0642   89.8765   11.5138 H         1 UNK         0.0000 
   8719 H(8)       34.1392   90.2414   12.8070 H         1 UNK         0.0000 
   8720 H(9)       32.4619   89.8219   13.0878 H         1 UNK         0.0000 
   8721 O(1)       37.8429  106.4590   13.4097 O.3       1 UNK         0.0000 
   8722 O(2)       35.8451  105.2189   19.4537 O.2       1 UNK         0.0000 
   8723 N(1)       38.0262  105.1683   18.8228 N.am      1 UNK         0.0000 
   8724 C(1)       37.9268  105.5272   17.4599 C.ar      1 UNK         0.0000 
   8725 C(2)       36.8446  106.2131   16.9087 C.ar      1 UNK         0.0000 
   8726 C(3)       36.8376  106.5218   15.5516 C.ar      1 UNK         0.0000 
   8727 C(4)       37.9076  106.1592   14.7376 C.ar      1 UNK         0.0000 
   8728 C(5)       39.0032  105.5008   15.2947 C.ar      1 UNK         0.0000 
   8729 C(6)       39.0085  105.1879   16.6465 C.ar      1 UNK         0.0000 
   8730 C(7)       37.0355  105.0154   19.7163 C.2       1 UNK         0.0000 
   8731 C(8)       37.4763  104.5828   21.0890 C.3       1 UNK         0.0000 
   8732 H(1)       36.0041  106.4987   17.5290 H         1 UNK         0.0000 
   8733 H(2)       35.9868  107.0517   15.1413 H         1 UNK         0.0000 
   8734 H(3)       39.8464  105.2307   14.6710 H         1 UNK         0.0000 
   8735 H(4)       39.8591  104.6748   17.0780 H         1 UNK         0.0000 
   8736 H(5)       38.7163  106.3985   13.0039 H         1 UNK         0.0000 
   8737 H(6)       38.9522  104.9235   19.1403 H         1 UNK         0.0000 
   8738 H(7)       37.3980  105.4073   21.7490 H         1 UNK         0.0000 
   8739 H(8)       38.4731  104.2257   21.1093 H         1 UNK         0.0000 
   8740 H(9)       36.7958  103.8597   21.4570 H         1 UNK         0.0000 
   8741 O(1)       42.1964   95.1375   16.5945 O.3       1 UNK         0.0000 
   8742 O(2)       44.1942  101.3063   16.7103 O.2       1 UNK         0.0000 
   8743 N(1)       42.0131  100.7019   16.5226 N.am      1 UNK         0.0000 
   8744 C(1)       42.1125   99.2934   16.5738 C.ar      1 UNK         0.0000 
   8745 C(2)       43.1947   98.6052   17.1221 C.ar      1 UNK         0.0000 
   8746 C(3)       43.2017   97.2134   17.1257 C.ar      1 UNK         0.0000 
   8747 C(4)       42.1317   96.4988   16.5933 C.ar      1 UNK         0.0000 
   8748 C(5)       41.0361   97.1867   16.0731 C.ar      1 UNK         0.0000 
   8749 C(6)       41.0308   98.5743   16.0644 C.ar      1 UNK         0.0000 
   8750 C(7)       43.0038  101.6072   16.5694 C.2       1 UNK         0.0000 
   8751 C(8)       42.5630  103.0413   16.4484 C.3       1 UNK         0.0000 
   8752 H(1)       44.0352   99.1477   17.5368 H         1 UNK         0.0000 
   8753 H(2)       44.0525   96.6969   17.5527 H         1 UNK         0.0000 
   8754 H(3)       40.1929   96.6375   15.6728 H         1 UNK         0.0000 
   8755 H(4)       40.1801   99.1078   15.6585 H         1 UNK         0.0000 
   8756 H(5)       41.3230   94.7549   16.4465 H         1 UNK         0.0000 
   8757 H(6)       41.0871  101.0653   16.3534 H         1 UNK         0.0000 
   8758 H(7)       42.6412  103.5044   17.3976 H         1 UNK         0.0000 
   8759 H(8)       41.5662  103.1394   16.1044 H         1 UNK         0.0000 
   8760 H(9)       43.2435  103.5590   15.8236 H         1 UNK         0.0000 
   8761 O(1)       37.8625   92.6529   22.6641 O.3       1 UNK         0.0000 
   8762 O(2)       39.8603   93.8929   16.6201 O.2       1 UNK         0.0000 
   8763 N(1)       37.6792   93.9436   17.2510 N.am      1 UNK         0.0000 
   8764 C(1)       37.7786   93.5847   18.6139 C.ar      1 UNK         0.0000 
   8765 C(2)       38.8608   92.8988   19.1651 C.ar      1 UNK         0.0000 
   8766 C(3)       38.8678   92.5900   20.5223 C.ar      1 UNK         0.0000 
   8767 C(4)       37.7978   92.9527   21.3362 C.ar      1 UNK         0.0000 
   8768 C(5)       36.7022   93.6110   20.7791 C.ar      1 UNK         0.0000 
   8769 C(6)       36.6969   93.9239   19.4273 C.ar      1 UNK         0.0000 
   8770 C(7)       38.6700   94.0964   16.3575 C.2       1 UNK         0.0000 
   8771 C(8)       38.2291   94.5290   14.9848 C.3       1 UNK         0.0000 
   8772 H(1)       39.7013   92.6131   18.5448 H         1 UNK         0.0000 
   8773 H(2)       39.7186   92.0601   20.9325 H         1 UNK         0.0000 
   8774 H(3)       35.8590   93.8811   21.4028 H         1 UNK         0.0000 
   8775 H(4)       35.8463   94.4370   18.9958 H         1 UNK         0.0000 
   8776 H(5)       36.9891   92.7134   23.0699 H         1 UNK         0.0000 
   8777 H(6)       36.7532   94.1883   16.9335 H         1 UNK         0.0000 
   8778 H(7)       38.3074   93.7046   14.3248 H         1 UNK         0.0000 
   8779 H(8)       37.2323   94.8862   14.9645 H         1 UNK         0.0000 
   8780 H(9)       38.9096   95.2521   14.6168 H         1 UNK         0.0000 
   8781 O(1)       40.5860  103.9743   19.4793 O.3       1 UNK         0.0000 
   8782 O(2)       38.5882   97.8056   19.3635 O.2       1 UNK         0.0000 
   8783 N(1)       40.7693   98.4100   19.5512 N.am      1 UNK         0.0000 
   8784 C(1)       40.6699   99.8184   19.5000 C.ar      1 UNK         0.0000 
   8785 C(2)       39.5877  100.5066   18.9517 C.ar      1 UNK         0.0000 
   8786 C(3)       39.5807  101.8984   18.9482 C.ar      1 UNK         0.0000 
   8787 C(4)       40.6507  102.6130   19.4805 C.ar      1 UNK         0.0000 
   8788 C(5)       41.7463  101.9251   20.0007 C.ar      1 UNK         0.0000 
   8789 C(6)       41.7516  100.5376   20.0094 C.ar      1 UNK         0.0000 
   8790 C(7)       39.7786   97.5047   19.5044 C.2       1 UNK         0.0000 
   8791 C(8)       40.2194   96.0705   19.6254 C.3       1 UNK         0.0000 
   8792 H(1)       38.7472   99.9641   18.5370 H         1 UNK         0.0000 
   8793 H(2)       38.7299  102.4149   18.5211 H         1 UNK         0.0000 
   8794 H(3)       42.5895  102.4744   20.4010 H         1 UNK         0.0000 
   8795 H(4)       42.6023  100.0041   20.4154 H         1 UNK         0.0000 
   8796 H(5)       41.4594  104.3570   19.6273 H         1 UNK         0.0000 
   8797 H(6)       41.6953   98.0465   19.7204 H         1 UNK         0.0000 
   8798 H(7)       40.1412   95.6074   18.6762 H         1 UNK         0.0000 
   8799 H(8)       41.2162   95.9724   19.9694 H         1 UNK         0.0000 
   8800 H(9)       39.5389   95.5529   20.2502 H         1 UNK         0.0000 
   8801 O(1)       36.2521   97.5076   20.5721 O.3       1 UNK         0.0000 
   8802 O(2)       34.2543   96.2675   26.6161 O.2       1 UNK         0.0000 
   8803 N(1)       36.4354   96.2169   25.9852 N.am      1 UNK         0.0000 
   8804 C(1)       36.3360   96.5758   24.6223 C.ar      1 UNK         0.0000 
   8805 C(2)       35.2538   97.2617   24.0711 C.ar      1 UNK         0.0000 
   8806 C(3)       35.2468   97.5705   22.7140 C.ar      1 UNK         0.0000 
   8807 C(4)       36.3168   97.2078   21.9000 C.ar      1 UNK         0.0000 
   8808 C(5)       37.4124   96.5494   22.4571 C.ar      1 UNK         0.0000 
   8809 C(6)       37.4177   96.2365   23.8089 C.ar      1 UNK         0.0000 
   8810 C(7)       35.4447   96.0641   26.8787 C.2       1 UNK         0.0000 
   8811 C(8)       35.8855   95.6314   28.2514 C.3       1 UNK         0.0000 
   8812 H(1)       34.4133   97.5474   24.6914 H         1 UNK         0.0000 
   8813 H(2)       34.3960   98.1004   22.3037 H         1 UNK         0.0000 
   8814 H(3)       38.2556   96.2793   21.8334 H         1 UNK         0.0000 
   8815 H(4)       38.2684   95.7235   24.2404 H         1 UNK         0.0000 
   8816 H(5)       37.1256   97.4471   20.1663 H         1 UNK         0.0000 
   8817 H(6)       37.3614   95.9722   26.3027 H         1 UNK         0.0000 
   8818 H(7)       35.8073   96.4559   28.9114 H         1 UNK         0.0000 
   8819 H(8)       36.8823   95.2743   28.2717 H         1 UNK         0.0000 
   8820 H(9)       35.2050   94.9083   28.6194 H         1 UNK         0.0000 
   8821 O(1)       35.1194  100.8684   23.7569 O.3       1 UNK         0.0000 
   8822 O(2)       37.1172  107.0372   23.8727 O.2       1 UNK         0.0000 
   8823 N(1)       34.9361  106.4328   23.6850 N.am      1 UNK         0.0000 
   8824 C(1)       35.0355  105.0244   23.7362 C.ar      1 UNK         0.0000 
   8825 C(2)       36.1177  104.3362   24.2845 C.ar      1 UNK         0.0000 
   8826 C(3)       36.1247  102.9444   24.2881 C.ar      1 UNK         0.0000 
   8827 C(4)       35.0547  102.2298   23.7557 C.ar      1 UNK         0.0000 
   8828 C(5)       33.9591  102.9177   23.2355 C.ar      1 UNK         0.0000 
   8829 C(6)       33.9538  104.3052   23.2268 C.ar      1 UNK         0.0000 
   8830 C(7)       35.9268  107.3381   23.7318 C.2       1 UNK         0.0000 
   8831 C(8)       35.4860  108.7723   23.6108 C.3       1 UNK         0.0000 
   8832 H(1)       36.9582  104.8787   24.6992 H         1 UNK         0.0000 
   8833 H(2)       36.9755  102.4279   24.7151 H         1 UNK         0.0000 
   8834 H(3)       33.1159  102.3684   22.8352 H         1 UNK         0.0000 
   8835 H(4)       33.1031  104.8387   22.8209 H         1 UNK         0.0000 
   8836 H(5)       34.2460  100.4858   23.6089 H         1 UNK         0.0000 
   8837 H(6)       34.0101  106.7963   23.5158 H         1 UNK         0.0000 
   8838 H(7)       35.5642  109.2354   24.5600 H         1 UNK         0.0000 
   8839 H(8)       34.4892  108.8704   23.2668 H         1 UNK         0.0000 
   8840 H(9)       36.1665  109.2899   22.9860 H         1 UNK         0.0000 
   8841 O(1)       39.4533   95.8732    8.3393 O.3       1 UNK         0.0000 
   8842 O(2)       41.4511   97.1133    2.2953 O.2       1 UNK         0.0000 
   8843 N(1)       39.2700   97.1640    2.9262 N.am      1 UNK         0.0000 
   8844 C(1)       39.3694   96.8050    4.2891 C.ar      1 UNK         0.0000 
   8845 C(2)       40.4516   96.1192    4.8403 C.ar      1 UNK         0.0000 
   8846 C(3)       40.4586   95.8104    6.1975 C.ar      1 UNK         0.0000 
   8847 C(4)       39.3886   96.1731    7.0114 C.ar      1 UNK         0.0000 
   8848 C(5)       38.2930   96.8314    6.4543 C.ar      1 UNK         0.0000 
   8849 C(6)       38.2877   97.1443    5.1025 C.ar      1 UNK         0.0000 
   8850 C(7)       40.2607   97.3168    2.0327 C.2       1 UNK         0.0000 
   8851 C(8)       39.8199   97.7494    0.6600 C.3       1 UNK         0.0000 
   8852 H(1)       41.2921   95.8335    4.2200 H         1 UNK         0.0000 
   8853 H(2)       41.3094   95.2805    6.6077 H         1 UNK         0.0000 
   8854 H(3)       37.4498   97.1015    7.0780 H         1 UNK         0.0000 
   8855 H(4)       37.4370   97.6574    4.6710 H         1 UNK         0.0000 
   8856 H(5)       38.5798   95.9338    8.7451 H         1 UNK         0.0000 
   8857 H(6)       38.3440   97.4087    2.6087 H         1 UNK         0.0000 
   8858 H(7)       39.8981   96.9250    0.0000 H         1 UNK         0.0000 
   8859 H(8)       38.8231   98.1066    0.6397 H         1 UNK         0.0000 
   8860 H(9)       40.5004   98.4725    0.2920 H         1 UNK         0.0000 
   8861 O(1)       42.1768  107.1947    5.1545 O.3       1 UNK         0.0000 
   8862 O(2)       40.1790  101.0260    5.0387 O.2       1 UNK         0.0000 
   8863 N(1)       42.3601  101.6304    5.2264 N.am      1 UNK         0.0000 
   8864 C(1)       42.2607  103.0388    5.1752 C.ar      1 UNK         0.0000 
   8865 C(2)       41.1785  103.7270    4.6269 C.ar      1 UNK         0.0000 
   8866 C(3)       41.1715  105.1188    4.6234 C.ar      1 UNK         0.0000 
   8867 C(4)       42.2415  105.8334    5.1557 C.ar      1 UNK         0.0000 
   8868 C(5)       43.3371  105.1455    5.6759 C.ar      1 UNK         0.0000 
   8869 C(6)       43.3424  103.7580    5.6846 C.ar      1 UNK         0.0000 
   8870 C(7)       41.3693  100.7251    5.1796 C.2       1 UNK         0.0000 
   8871 C(8)       41.8102   99.2909    5.3006 C.3       1 UNK         0.0000 
   8872 H(1)       40.3380  103.1845    4.2122 H         1 UNK         0.0000 
   8873 H(2)       40.3207  105.6353    4.1963 H         1 UNK         0.0000 
   8874 H(3)       44.1803  105.6948    6.0762 H         1 UNK         0.0000 
   8875 H(4)       44.1930  103.2245    6.0906 H         1 UNK         0.0000 
   8876 H(5)       43.0502  107.5773    5.3025 H         1 UNK         0.0000 
   8877 H(6)       43.2861  101.2669    5.3956 H         1 UNK         0.0000 
   8878 H(7)       41.7319   98.8278    4.3514 H         1 UNK         0.0000 
   8879 H(8)       42.8070   99.1928    5.6446 H         1 UNK         0.0000 
   8880 H(9)       41.1297   98.7733    5.9254 H         1 UNK         0.0000 
   8881 O(1)       39.4337  115.4103    6.2473 O.3       1 UNK         0.0000 
   8882 O(2)       37.4359  114.1703   12.2913 O.2       1 UNK         0.0000 
   8883 N(1)       39.6170  114.1196   11.6604 N.am      1 UNK         0.0000 
   8884 C(1)       39.5176  114.4785   10.2975 C.ar      1 UNK         0.0000 
   8885 C(2)       38.4354  115.1644    9.7463 C.ar      1 UNK         0.0000 
   8886 C(3)       38.4284  115.4732    8.3892 C.ar      1 UNK         0.0000 
   8887 C(4)       39.4984  115.1105    7.5752 C.ar      1 UNK         0.0000 
   8888 C(5)       40.5940  114.4521    8.1323 C.ar      1 UNK         0.0000 
   8889 C(6)       40.5993  114.1393    9.4841 C.ar      1 UNK         0.0000 
   8890 C(7)       38.6262  113.9668   12.5539 C.2       1 UNK         0.0000 
   8891 C(8)       39.0671  113.5342   13.9266 C.3       1 UNK         0.0000 
   8892 H(1)       37.5949  115.4501   10.3666 H         1 UNK         0.0000 
   8893 H(2)       37.5776  116.0031    7.9789 H         1 UNK         0.0000 
   8894 H(3)       41.4372  114.1821    7.5086 H         1 UNK         0.0000 
   8895 H(4)       41.4499  113.6262    9.9156 H         1 UNK         0.0000 
   8896 H(5)       40.3071  115.3498    5.8415 H         1 UNK         0.0000 
   8897 H(6)       40.5430  113.8749   11.9779 H         1 UNK         0.0000 
   8898 H(7)       38.9888  114.3586   14.5866 H         1 UNK         0.0000 
   8899 H(8)       40.0639  113.1770   13.9469 H         1 UNK         0.0000 
   8900 H(9)       38.3866  112.8111   14.2946 H         1 UNK         0.0000 
   8901 O(1)       43.7872  104.0888    9.4321 O.3       1 UNK         0.0000 
   8902 O(2)       45.7850  110.2576    9.5479 O.2       1 UNK         0.0000 
   8903 N(1)       43.6038  109.6532    9.3602 N.am      1 UNK         0.0000 
   8904 C(1)       43.7033  108.2448    9.4114 C.ar      1 UNK         0.0000 
   8905 C(2)       44.7855  107.5566    9.9597 C.ar      1 UNK         0.0000 
   8906 C(3)       44.7925  106.1648    9.9633 C.ar      1 UNK         0.0000 
   8907 C(4)       43.7225  105.4502    9.4309 C.ar      1 UNK         0.0000 
   8908 C(5)       42.6269  106.1381    8.9107 C.ar      1 UNK         0.0000 
   8909 C(6)       42.6215  107.5256    8.9020 C.ar      1 UNK         0.0000 
   8910 C(7)       44.5946  110.5585    9.4070 C.2       1 UNK         0.0000 
   8911 C(8)       44.1538  111.9927    9.2860 C.3       1 UNK         0.0000 
   8912 H(1)       45.6260  108.0991   10.3744 H         1 UNK         0.0000 
   8913 H(2)       45.6433  105.6483   10.3903 H         1 UNK         0.0000 
   8914 H(3)       41.7837  105.5888    8.5104 H         1 UNK         0.0000 
   8915 H(4)       41.7709  108.0591    8.4961 H         1 UNK         0.0000 
   8916 H(5)       42.9137  103.7062    9.2841 H         1 UNK         0.0000 
   8917 H(6)       42.6779  110.0167    9.1910 H         1 UNK         0.0000 
   8918 H(7)       44.2320  112.4558   10.2352 H         1 UNK         0.0000 
   8919 H(8)       43.1570  112.0908    8.9420 H         1 UNK         0.0000 
   8920 H(9)       44.8342  112.5103    8.6612 H         1 UNK         0.0000 
   8921 O(1)       33.9671  116.2865   15.5017 O.3       1 UNK         0.0000 
   8922 O(2)       35.9649  117.5266    9.4577 O.2       1 UNK         0.0000 
   8923 N(1)       33.7837  117.5773   10.0886 N.am      1 UNK         0.0000 
   8924 C(1)       33.8832  117.2183   11.4515 C.ar      1 UNK         0.0000 
   8925 C(2)       34.9653  116.5325   12.0027 C.ar      1 UNK         0.0000 
   8926 C(3)       34.9724  116.2237   13.3599 C.ar      1 UNK         0.0000 
   8927 C(4)       33.9024  116.5864   14.1738 C.ar      1 UNK         0.0000 
   8928 C(5)       32.8067  117.2447   13.6167 C.ar      1 UNK         0.0000 
   8929 C(6)       32.8014  117.5576   12.2649 C.ar      1 UNK         0.0000 
   8930 C(7)       34.7745  117.7301    9.1951 C.2       1 UNK         0.0000 
   8931 C(8)       34.3337  118.1627    7.8224 C.3       1 UNK         0.0000 
   8932 H(1)       35.8059  116.2468   11.3824 H         1 UNK         0.0000 
   8933 H(2)       35.8232  115.6938   13.7701 H         1 UNK         0.0000 
   8934 H(3)       31.9636  117.5148   14.2404 H         1 UNK         0.0000 
   8935 H(4)       31.9508  118.0707   11.8334 H         1 UNK         0.0000 
   8936 H(5)       33.0936  116.3471   15.9075 H         1 UNK         0.0000 
   8937 H(6)       32.8578  117.8220    9.7711 H         1 UNK         0.0000 
   8938 H(7)       34.4119  117.3383    7.1624 H         1 UNK         0.0000 
   8939 H(8)       33.3369  118.5199    7.8021 H         1 UNK         0.0000 
   8940 H(9)       35.0141  118.8858    7.4544 H         1 UNK         0.0000 
   8941 O(1)       35.0998  112.9257   12.3169 O.3       1 UNK         0.0000 
   8942 O(2)       33.1020  106.7569   12.2011 O.2       1 UNK         0.0000 
   8943 N(1)       35.2831  107.3613   12.3888 N.am      1 UNK         0.0000 
   8944 C(1)       35.1837  108.7698   12.3376 C.ar      1 UNK         0.0000 
   8945 C(2)       34.1015  109.4580   11.7893 C.ar      1 UNK         0.0000 
   8946 C(3)       34.0945  110.8498   11.7858 C.ar      1 UNK         0.0000 
   8947 C(4)       35.1645  111.5644   12.3181 C.ar      1 UNK         0.0000 
   8948 C(5)       36.2601  110.8765   12.8383 C.ar      1 UNK         0.0000 
   8949 C(6)       36.2654  109.4889   12.8470 C.ar      1 UNK         0.0000 
   8950 C(7)       34.2923  106.4560   12.3420 C.2       1 UNK         0.0000 
   8951 C(8)       34.7332  105.0219   12.4630 C.3       1 UNK         0.0000 
   8952 H(1)       33.2610  108.9154   11.3746 H         1 UNK         0.0000 
   8953 H(2)       33.2437  111.3663   11.3587 H         1 UNK         0.0000 
   8954 H(3)       37.1033  111.4257   13.2386 H         1 UNK         0.0000 
   8955 H(4)       37.1160  108.9554   13.2530 H         1 UNK         0.0000 
   8956 H(5)       35.9732  113.3083   12.4649 H         1 UNK         0.0000 
   8957 H(6)       36.2091  106.9979   12.5580 H         1 UNK         0.0000 
   8958 H(7)       34.6549  104.5588   11.5138 H         1 UNK         0.0000 
   8959 H(8)       35.7300  104.9238   12.8070 H         1 UNK         0.0000 
   8960 H(9)       34.0527  104.5042   13.0878 H         1 UNK         0.0000 
   8961 O(1)       39.4337  121.1413   13.4097 O.3       1 UNK         0.0000 
   8962 O(2)       37.4359  119.9012   19.4537 O.2       1 UNK         0.0000 
   8963 N(1)       39.6170  119.8506   18.8228 N.am      1 UNK         0.0000 
   8964 C(1)       39.5176  120.2095   17.4599 C.ar      1 UNK         0.0000 
   8965 C(2)       38.4354  120.8954   16.9087 C.ar      1 UNK         0.0000 
   8966 C(3)       38.4284  121.2042   15.5516 C.ar      1 UNK         0.0000 
   8967 C(4)       39.4984  120.8415   14.7376 C.ar      1 UNK         0.0000 
   8968 C(5)       40.5940  120.1831   15.2947 C.ar      1 UNK         0.0000 
   8969 C(6)       40.5993  119.8702   16.6465 C.ar      1 UNK         0.0000 
   8970 C(7)       38.6262  119.6978   19.7163 C.2       1 UNK         0.0000 
   8971 C(8)       39.0671  119.2651   21.0890 C.3       1 UNK         0.0000 
   8972 H(1)       37.5949  121.1810   17.5290 H         1 UNK         0.0000 
   8973 H(2)       37.5776  121.7341   15.1413 H         1 UNK         0.0000 
   8974 H(3)       41.4372  119.9130   14.6710 H         1 UNK         0.0000 
   8975 H(4)       41.4499  119.3572   17.0780 H         1 UNK         0.0000 
   8976 H(5)       40.3071  121.0808   13.0039 H         1 UNK         0.0000 
   8977 H(6)       40.5430  119.6059   19.1403 H         1 UNK         0.0000 
   8978 H(7)       38.9888  120.0896   21.7490 H         1 UNK         0.0000 
   8979 H(8)       40.0639  118.9080   21.1093 H         1 UNK         0.0000 
   8980 H(9)       38.3866  118.5420   21.4570 H         1 UNK         0.0000 
   8981 O(1)       43.7872  109.8198   16.5945 O.3       1 UNK         0.0000 
   8982 O(2)       45.7850  115.9886   16.7103 O.2       1 UNK         0.0000 
   8983 N(1)       43.6038  115.3842   16.5226 N.am      1 UNK         0.0000 
   8984 C(1)       43.7033  113.9758   16.5738 C.ar      1 UNK         0.0000 
   8985 C(2)       44.7855  113.2875   17.1221 C.ar      1 UNK         0.0000 
   8986 C(3)       44.7925  111.8957   17.1257 C.ar      1 UNK         0.0000 
   8987 C(4)       43.7225  111.1811   16.5933 C.ar      1 UNK         0.0000 
   8988 C(5)       42.6269  111.8690   16.0731 C.ar      1 UNK         0.0000 
   8989 C(6)       42.6215  113.2566   16.0644 C.ar      1 UNK         0.0000 
   8990 C(7)       44.5946  116.2895   16.5694 C.2       1 UNK         0.0000 
   8991 C(8)       44.1538  117.7236   16.4484 C.3       1 UNK         0.0000 
   8992 H(1)       45.6260  113.8301   17.5368 H         1 UNK         0.0000 
   8993 H(2)       45.6433  111.3793   17.5527 H         1 UNK         0.0000 
   8994 H(3)       41.7837  111.3198   15.6728 H         1 UNK         0.0000 
   8995 H(4)       41.7709  113.7901   15.6585 H         1 UNK         0.0000 
   8996 H(5)       42.9137  109.4372   16.4465 H         1 UNK         0.0000 
   8997 H(6)       42.6779  115.7477   16.3534 H         1 UNK         0.0000 
   8998 H(7)       44.2320  118.1867   17.3976 H         1 UNK         0.0000 
   8999 H(8)       43.1570  117.8218   16.1044 H         1 UNK         0.0000 
   9000 H(9)       44.8342  118.2413   15.8236 H         1 UNK         0.0000 
   9001 O(1)       39.4533  107.3352   22.6641 O.3       1 UNK         0.0000 
   9002 O(2)       41.4511  108.5753   16.6201 O.2       1 UNK         0.0000 
   9003 N(1)       39.2700  108.6259   17.2510 N.am      1 UNK         0.0000 
   9004 C(1)       39.3694  108.2670   18.6139 C.ar      1 UNK         0.0000 
   9005 C(2)       40.4516  107.5811   19.1651 C.ar      1 UNK         0.0000 
   9006 C(3)       40.4586  107.2723   20.5223 C.ar      1 UNK         0.0000 
   9007 C(4)       39.3886  107.6350   21.3362 C.ar      1 UNK         0.0000 
   9008 C(5)       38.2930  108.2934   20.7791 C.ar      1 UNK         0.0000 
   9009 C(6)       38.2877  108.6062   19.4273 C.ar      1 UNK         0.0000 
   9010 C(7)       40.2607  108.7787   16.3575 C.2       1 UNK         0.0000 
   9011 C(8)       39.8199  109.2114   14.9848 C.3       1 UNK         0.0000 
   9012 H(1)       41.2921  107.2954   18.5448 H         1 UNK         0.0000 
   9013 H(2)       41.3094  106.7424   20.9325 H         1 UNK         0.0000 
   9014 H(3)       37.4498  108.5635   21.4028 H         1 UNK         0.0000 
   9015 H(4)       37.4370  109.1193   18.9958 H         1 UNK         0.0000 
   9016 H(5)       38.5798  107.3957   23.0699 H         1 UNK         0.0000 
   9017 H(6)       38.3440  108.8706   16.9335 H         1 UNK         0.0000 
   9018 H(7)       39.8981  108.3869   14.3248 H         1 UNK         0.0000 
   9019 H(8)       38.8231  109.5685   14.9645 H         1 UNK         0.0000 
   9020 H(9)       40.5004  109.9345   14.6168 H         1 UNK         0.0000 
   9021 O(1)       42.1768  118.6567   19.4793 O.3       1 UNK         0.0000 
   9022 O(2)       40.1790  112.4879   19.3635 O.2       1 UNK         0.0000 
   9023 N(1)       42.3601  113.0923   19.5512 N.am      1 UNK         0.0000 
   9024 C(1)       42.2607  114.5007   19.5000 C.ar      1 UNK         0.0000 
   9025 C(2)       41.1785  115.1890   18.9517 C.ar      1 UNK         0.0000 
   9026 C(3)       41.1715  116.5808   18.9482 C.ar      1 UNK         0.0000 
   9027 C(4)       42.2415  117.2954   19.4805 C.ar      1 UNK         0.0000 
   9028 C(5)       43.3371  116.6074   20.0007 C.ar      1 UNK         0.0000 
   9029 C(6)       43.3424  115.2199   20.0094 C.ar      1 UNK         0.0000 
   9030 C(7)       41.3693  112.1870   19.5044 C.2       1 UNK         0.0000 
   9031 C(8)       41.8102  110.7529   19.6254 C.3       1 UNK         0.0000 
   9032 H(1)       40.3380  114.6464   18.5370 H         1 UNK         0.0000 
   9033 H(2)       40.3207  117.0972   18.5211 H         1 UNK         0.0000 
   9034 H(3)       44.1803  117.1567   20.4010 H         1 UNK         0.0000 
   9035 H(4)       44.1930  114.6864   20.4154 H         1 UNK         0.0000 
   9036 H(5)       43.0502  119.0393   19.6273 H         1 UNK         0.0000 
   9037 H(6)       43.2861  112.7288   19.7204 H         1 UNK         0.0000 
   9038 H(7)       41.7319  110.2898   18.6762 H         1 UNK         0.0000 
   9039 H(8)       42.8070  110.6547   19.9694 H         1 UNK         0.0000 
   9040 H(9)       41.1297  110.2352   20.2502 H         1 UNK         0.0000 
   9041 O(1)       37.8429  112.1899   20.5721 O.3       1 UNK         0.0000 
   9042 O(2)       35.8451  110.9499   26.6161 O.2       1 UNK         0.0000 
   9043 N(1)       38.0262  110.8992   25.9852 N.am      1 UNK         0.0000 
   9044 C(1)       37.9268  111.2581   24.6223 C.ar      1 UNK         0.0000 
   9045 C(2)       36.8446  111.9440   24.0711 C.ar      1 UNK         0.0000 
   9046 C(3)       36.8376  112.2528   22.7140 C.ar      1 UNK         0.0000 
   9047 C(4)       37.9076  111.8901   21.9000 C.ar      1 UNK         0.0000 
   9048 C(5)       39.0032  111.2318   22.4571 C.ar      1 UNK         0.0000 
   9049 C(6)       39.0085  110.9189   23.8089 C.ar      1 UNK         0.0000 
   9050 C(7)       37.0355  110.7464   26.8787 C.2       1 UNK         0.0000 
   9051 C(8)       37.4763  110.3138   28.2514 C.3       1 UNK         0.0000 
   9052 H(1)       36.0041  112.2297   24.6914 H         1 UNK         0.0000 
   9053 H(2)       35.9868  112.7827   22.3037 H         1 UNK         0.0000 
   9054 H(3)       39.8464  110.9617   21.8334 H         1 UNK         0.0000 
   9055 H(4)       39.8591  110.4058   24.2404 H         1 UNK         0.0000 
   9056 H(5)       38.7163  112.1294   20.1663 H         1 UNK         0.0000 
   9057 H(6)       38.9522  110.6545   26.3027 H         1 UNK         0.0000 
   9058 H(7)       37.3980  111.1382   28.9114 H         1 UNK         0.0000 
   9059 H(8)       38.4731  109.9566   28.2717 H         1 UNK         0.0000 
   9060 H(9)       36.7958  109.5907   28.6194 H         1 UNK         0.0000 
   9061 O(1)       36.7102  115.5508   23.7569 O.3       1 UNK         0.0000 
   9062 O(2)       38.7080  121.7196   23.8727 O.2       1 UNK         0.0000 
   9063 N(1)       36.5268  121.1152   23.6850 N.am      1 UNK         0.0000 
   9064 C(1)       36.6263  119.7067   23.7362 C.ar      1 UNK         0.0000 
   9065 C(2)       37.7085  119.0185   24.2845 C.ar      1 UNK         0.0000 
   9066 C(3)       37.7155  117.6267   24.2881 C.ar      1 UNK         0.0000 
   9067 C(4)       36.6455  116.9121   23.7557 C.ar      1 UNK         0.0000 
   9068 C(5)       35.5499  117.6000   23.2355 C.ar      1 UNK         0.0000 
   9069 C(6)       35.5446  118.9876   23.2268 C.ar      1 UNK         0.0000 
   9070 C(7)       37.5176  122.0205   23.7318 C.2       1 UNK         0.0000 
   9071 C(8)       37.0768  123.4546   23.6108 C.3       1 UNK         0.0000 
   9072 H(1)       38.5490  119.5610   24.6992 H         1 UNK         0.0000 
   9073 H(2)       38.5663  117.1102   24.7151 H         1 UNK         0.0000 
   9074 H(3)       34.7067  117.0508   22.8352 H         1 UNK         0.0000 
   9075 H(4)       34.6939  119.5211   22.8209 H         1 UNK         0.0000 
   9076 H(5)       35.8367  115.1682   23.6089 H         1 UNK         0.0000 
   9077 H(6)       35.6009  121.4786   23.5158 H         1 UNK         0.0000 
   9078 H(7)       37.1550  123.9177   24.5600 H         1 UNK         0.0000 
   9079 H(8)       36.0800  123.5527   23.2668 H         1 UNK         0.0000 
   9080 H(9)       37.7572  123.9723   22.9860 H         1 UNK         0.0000 
   9081 O(1)       41.0441  110.5556    8.3393 O.3       1 UNK         0.0000 
   9082 O(2)       43.0419  111.7957    2.2953 O.2       1 UNK         0.0000 
   9083 N(1)       40.8607  111.8463    2.9262 N.am      1 UNK         0.0000 
   9084 C(1)       40.9602  111.4874    4.2891 C.ar      1 UNK         0.0000 
   9085 C(2)       42.0423  110.8015    4.8403 C.ar      1 UNK         0.0000 
   9086 C(3)       42.0494  110.4927    6.1975 C.ar      1 UNK         0.0000 
   9087 C(4)       40.9794  110.8554    7.0114 C.ar      1 UNK         0.0000 
   9088 C(5)       39.8837  111.5138    6.4543 C.ar      1 UNK         0.0000 
   9089 C(6)       39.8784  111.8266    5.1025 C.ar      1 UNK         0.0000 
   9090 C(7)       41.8515  111.9991    2.0327 C.2       1 UNK         0.0000 
   9091 C(8)       41.4107  112.4318    0.6600 C.3       1 UNK         0.0000 
   9092 H(1)       42.8829  110.5158    4.2200 H         1 UNK         0.0000 
   9093 H(2)       42.9002  109.9628    6.6077 H         1 UNK         0.0000 
   9094 H(3)       39.0406  111.7839    7.0780 H         1 UNK         0.0000 
   9095 H(4)       39.0278  112.3397    4.6710 H         1 UNK         0.0000 
   9096 H(5)       40.1706  110.6161    8.7451 H         1 UNK         0.0000 
   9097 H(6)       39.9348  112.0910    2.6087 H         1 UNK         0.0000 
   9098 H(7)       41.4889  111.6073    0.0000 H         1 UNK         0.0000 
   9099 H(8)       40.4139  112.7889    0.6397 H         1 UNK         0.0000 
   9100 H(9)       42.0911  113.1549    0.2920 H         1 UNK         0.0000 
   9101 O(1)       43.7676  121.8771    5.1545 O.3       1 UNK         0.0000 
   9102 O(2)       41.7698  115.7083    5.0387 O.2       1 UNK         0.0000 
   9103 N(1)       43.9509  116.3127    5.2264 N.am      1 UNK         0.0000 
   9104 C(1)       43.8515  117.7211    5.1752 C.ar      1 UNK         0.0000 
   9105 C(2)       42.7693  118.4094    4.6269 C.ar      1 UNK         0.0000 
   9106 C(3)       42.7623  119.8012    4.6234 C.ar      1 UNK         0.0000 
   9107 C(4)       43.8323  120.5158    5.1557 C.ar      1 UNK         0.0000 
   9108 C(5)       44.9279  119.8278    5.6759 C.ar      1 UNK         0.0000 
   9109 C(6)       44.9332  118.4403    5.6846 C.ar      1 UNK         0.0000 
   9110 C(7)       42.9601  115.4074    5.1796 C.2       1 UNK         0.0000 
   9111 C(8)       43.4010  113.9733    5.3006 C.3       1 UNK         0.0000 
   9112 H(1)       41.9288  117.8668    4.2122 H         1 UNK         0.0000 
   9113 H(2)       41.9115  120.3176    4.1963 H         1 UNK         0.0000 
   9114 H(3)       45.7711  120.3771    6.0762 H         1 UNK         0.0000 
   9115 H(4)       45.7838  117.9068    6.0906 H         1 UNK         0.0000 
   9116 H(5)       44.6410  122.2597    5.3025 H         1 UNK         0.0000 
   9117 H(6)       44.8769  115.9492    5.3956 H         1 UNK         0.0000 
   9118 H(7)       43.3227  113.5102    4.3514 H         1 UNK         0.0000 
   9119 H(8)       44.3978  113.8751    5.6446 H         1 UNK         0.0000 
   9120 H(9)       42.7205  113.4556    5.9254 H         1 UNK         0.0000 
   9121 O(1)       41.0245  130.0927    6.2473 O.3       1 UNK         0.0000 
   9122 O(2)       39.0267  128.8526   12.2913 O.2       1 UNK         0.0000 
   9123 N(1)       41.2078  128.8020   11.6604 N.am      1 UNK         0.0000 
   9124 C(1)       41.1083  129.1609   10.2975 C.ar      1 UNK         0.0000 
   9125 C(2)       40.0262  129.8468    9.7463 C.ar      1 UNK         0.0000 
   9126 C(3)       40.0192  130.1555    8.3892 C.ar      1 UNK         0.0000 
   9127 C(4)       41.0892  129.7929    7.5752 C.ar      1 UNK         0.0000 
   9128 C(5)       42.1848  129.1345    8.1323 C.ar      1 UNK         0.0000 
   9129 C(6)       42.1901  128.8216    9.4841 C.ar      1 UNK         0.0000 
   9130 C(7)       40.2170  128.6491   12.5539 C.2       1 UNK         0.0000 
   9131 C(8)       40.6579  128.2165   13.9266 C.3       1 UNK         0.0000 
   9132 H(1)       39.1857  130.1324   10.3666 H         1 UNK         0.0000 
   9133 H(2)       39.1683  130.6854    7.9789 H         1 UNK         0.0000 
   9134 H(3)       43.0280  128.8644    7.5086 H         1 UNK         0.0000 
   9135 H(4)       43.0407  128.3085    9.9156 H         1 UNK         0.0000 
   9136 H(5)       41.8979  130.0322    5.8415 H         1 UNK         0.0000 
   9137 H(6)       42.1338  128.5572   11.9779 H         1 UNK         0.0000 
   9138 H(7)       40.5796  129.0410   14.5866 H         1 UNK         0.0000 
   9139 H(8)       41.6547  127.8594   13.9469 H         1 UNK         0.0000 
   9140 H(9)       39.9774  127.4934   14.2946 H         1 UNK         0.0000 
   9141 O(1)       45.3780  118.7712    9.4321 O.3       1 UNK         0.0000 
   9142 O(2)       47.3758  124.9400    9.5479 O.2       1 UNK         0.0000 
   9143 N(1)       45.1946  124.3356    9.3602 N.am      1 UNK         0.0000 
   9144 C(1)       45.2941  122.9271    9.4114 C.ar      1 UNK         0.0000 
   9145 C(2)       46.3762  122.2389    9.9597 C.ar      1 UNK         0.0000 
   9146 C(3)       46.3833  120.8471    9.9633 C.ar      1 UNK         0.0000 
   9147 C(4)       45.3132  120.1325    9.4309 C.ar      1 UNK         0.0000 
   9148 C(5)       44.2176  120.8204    8.9107 C.ar      1 UNK         0.0000 
   9149 C(6)       44.2123  122.2080    8.9020 C.ar      1 UNK         0.0000 
   9150 C(7)       46.1854  125.2409    9.4070 C.2       1 UNK         0.0000 
   9151 C(8)       45.7446  126.6750    9.2860 C.3       1 UNK         0.0000 
   9152 H(1)       47.2168  122.7814   10.3744 H         1 UNK         0.0000 
   9153 H(2)       47.2341  120.3306   10.3903 H         1 UNK         0.0000 
   9154 H(3)       43.3745  120.2712    8.5104 H         1 UNK         0.0000 
   9155 H(4)       43.3617  122.7415    8.4961 H         1 UNK         0.0000 
   9156 H(5)       44.5045  118.3886    9.2841 H         1 UNK         0.0000 
   9157 H(6)       44.2687  124.6990    9.1910 H         1 UNK         0.0000 
   9158 H(7)       45.8228  127.1381   10.2352 H         1 UNK         0.0000 
   9159 H(8)       44.7478  126.7731    8.9420 H         1 UNK         0.0000 
   9160 H(9)       46.4250  127.1927    8.6612 H         1 UNK         0.0000 
   9161 O(1)       35.5579  130.9689   15.5017 O.3       1 UNK         0.0000 
   9162 O(2)       37.5557  132.2090    9.4577 O.2       1 UNK         0.0000 
   9163 N(1)       35.3745  132.2596   10.0886 N.am      1 UNK         0.0000 
   9164 C(1)       35.4740  131.9007   11.4515 C.ar      1 UNK         0.0000 
   9165 C(2)       36.5561  131.2148   12.0027 C.ar      1 UNK         0.0000 
   9166 C(3)       36.5632  130.9060   13.3599 C.ar      1 UNK         0.0000 
   9167 C(4)       35.4931  131.2687   14.1738 C.ar      1 UNK         0.0000 
   9168 C(5)       34.3975  131.9271   13.6167 C.ar      1 UNK         0.0000 
   9169 C(6)       34.3922  132.2399   12.2649 C.ar      1 UNK         0.0000 
   9170 C(7)       36.3653  132.4124    9.1951 C.2       1 UNK         0.0000 
   9171 C(8)       35.9244  132.8451    7.8224 C.3       1 UNK         0.0000 
   9172 H(1)       37.3967  130.9291   11.3824 H         1 UNK         0.0000 
   9173 H(2)       37.4140  130.3761   13.7701 H         1 UNK         0.0000 
   9174 H(3)       33.5544  132.1972   14.2404 H         1 UNK         0.0000 
   9175 H(4)       33.5416  132.7530   11.8334 H         1 UNK         0.0000 
   9176 H(5)       34.6844  131.0294   15.9075 H         1 UNK         0.0000 
   9177 H(6)       34.4486  132.5043    9.7711 H         1 UNK         0.0000 
   9178 H(7)       36.0027  132.0206    7.1624 H         1 UNK         0.0000 
   9179 H(8)       34.9277  133.2022    7.8021 H         1 UNK         0.0000 
   9180 H(9)       36.6049  133.5682    7.4544 H         1 UNK         0.0000 
   9181 O(1)       36.6906  127.6080   12.3169 O.3       1 UNK         0.0000 
   9182 O(2)       34.6928  121.4393   12.2011 O.2       1 UNK         0.0000 
   9183 N(1)       36.8739  122.0437   12.3888 N.am      1 UNK         0.0000 
   9184 C(1)       36.7745  123.4521   12.3376 C.ar      1 UNK         0.0000 
   9185 C(2)       35.6923  124.1403   11.7893 C.ar      1 UNK         0.0000 
   9186 C(3)       35.6853  125.5321   11.7858 C.ar      1 UNK         0.0000 
   9187 C(4)       36.7553  126.2467   12.3181 C.ar      1 UNK         0.0000 
   9188 C(5)       37.8509  125.5588   12.8383 C.ar      1 UNK         0.0000 
   9189 C(6)       37.8562  124.1713   12.8470 C.ar      1 UNK         0.0000 
   9190 C(7)       35.8831  121.1383   12.3420 C.2       1 UNK         0.0000 
   9191 C(8)       36.3240  119.7042   12.4630 C.3       1 UNK         0.0000 
   9192 H(1)       34.8518  123.5978   11.3746 H         1 UNK         0.0000 
   9193 H(2)       34.8345  126.0486   11.3587 H         1 UNK         0.0000 
   9194 H(3)       38.6941  126.1081   13.2386 H         1 UNK         0.0000 
   9195 H(4)       38.7068  123.6378   13.2530 H         1 UNK         0.0000 
   9196 H(5)       37.5640  127.9906   12.4649 H         1 UNK         0.0000 
   9197 H(6)       37.7999  121.6802   12.5580 H         1 UNK         0.0000 
   9198 H(7)       36.2457  119.2411   11.5138 H         1 UNK         0.0000 
   9199 H(8)       37.3208  119.6061   12.8070 H         1 UNK         0.0000 
   9200 H(9)       35.6435  119.1866   13.0878 H         1 UNK         0.0000 
   9201 O(1)       41.0245  135.8236   13.4097 O.3       1 UNK         0.0000 
   9202 O(2)       39.0267  134.5836   19.4537 O.2       1 UNK         0.0000 
   9203 N(1)       41.2078  134.5329   18.8228 N.am      1 UNK         0.0000 
   9204 C(1)       41.1083  134.8918   17.4599 C.ar      1 UNK         0.0000 
   9205 C(2)       40.0262  135.5777   16.9087 C.ar      1 UNK         0.0000 
   9206 C(3)       40.0192  135.8865   15.5516 C.ar      1 UNK         0.0000 
   9207 C(4)       41.0892  135.5238   14.7376 C.ar      1 UNK         0.0000 
   9208 C(5)       42.1848  134.8654   15.2947 C.ar      1 UNK         0.0000 
   9209 C(6)       42.1901  134.5526   16.6465 C.ar      1 UNK         0.0000 
   9210 C(7)       40.2170  134.3801   19.7163 C.2       1 UNK         0.0000 
   9211 C(8)       40.6579  133.9475   21.0890 C.3       1 UNK         0.0000 
   9212 H(1)       39.1857  135.8634   17.5290 H         1 UNK         0.0000 
   9213 H(2)       39.1683  136.4164   15.1413 H         1 UNK         0.0000 
   9214 H(3)       43.0280  134.5954   14.6710 H         1 UNK         0.0000 
   9215 H(4)       43.0407  134.0395   17.0780 H         1 UNK         0.0000 
   9216 H(5)       41.8979  135.7631   13.0039 H         1 UNK         0.0000 
   9217 H(6)       42.1338  134.2882   19.1403 H         1 UNK         0.0000 
   9218 H(7)       40.5796  134.7719   21.7490 H         1 UNK         0.0000 
   9219 H(8)       41.6547  133.5903   21.1093 H         1 UNK         0.0000 
   9220 H(9)       39.9774  133.2244   21.4570 H         1 UNK         0.0000 
   9221 O(1)       45.3780  124.5021   16.5945 O.3       1 UNK         0.0000 
   9222 O(2)       47.3758  130.6709   16.7103 O.2       1 UNK         0.0000 
   9223 N(1)       45.1946  130.0665   16.5226 N.am      1 UNK         0.0000 
   9224 C(1)       45.2941  128.6581   16.5738 C.ar      1 UNK         0.0000 
   9225 C(2)       46.3762  127.9699   17.1221 C.ar      1 UNK         0.0000 
   9226 C(3)       46.3833  126.5781   17.1257 C.ar      1 UNK         0.0000 
   9227 C(4)       45.3132  125.8635   16.5933 C.ar      1 UNK         0.0000 
   9228 C(5)       44.2176  126.5514   16.0731 C.ar      1 UNK         0.0000 
   9229 C(6)       44.2123  127.9389   16.0644 C.ar      1 UNK         0.0000 
   9230 C(7)       46.1854  130.9718   16.5694 C.2       1 UNK         0.0000 
   9231 C(8)       45.7446  132.4060   16.4484 C.3       1 UNK         0.0000 
   9232 H(1)       47.2168  128.5124   17.5368 H         1 UNK         0.0000 
   9233 H(2)       47.2341  126.0616   17.5527 H         1 UNK         0.0000 
   9234 H(3)       43.3745  126.0021   15.6728 H         1 UNK         0.0000 
   9235 H(4)       43.3617  128.4724   15.6585 H         1 UNK         0.0000 
   9236 H(5)       44.5045  124.1195   16.4465 H         1 UNK         0.0000 
   9237 H(6)       44.2687  130.4300   16.3534 H         1 UNK         0.0000 
   9238 H(7)       45.8228  132.8691   17.3976 H         1 UNK         0.0000 
   9239 H(8)       44.7478  132.5041   16.1044 H         1 UNK         0.0000 
   9240 H(9)       46.4250  132.9236   15.8236 H         1 UNK         0.0000 
   9241 O(1)       41.0441  122.0175   22.6641 O.3       1 UNK         0.0000 
   9242 O(2)       43.0419  123.2576   16.6201 O.2       1 UNK         0.0000 
   9243 N(1)       40.8607  123.3082   17.2510 N.am      1 UNK         0.0000 
   9244 C(1)       40.9602  122.9493   18.6139 C.ar      1 UNK         0.0000 
   9245 C(2)       42.0423  122.2634   19.1651 C.ar      1 UNK         0.0000 
   9246 C(3)       42.0494  121.9547   20.5223 C.ar      1 UNK         0.0000 
   9247 C(4)       40.9794  122.3173   21.3362 C.ar      1 UNK         0.0000 
   9248 C(5)       39.8837  122.9757   20.7791 C.ar      1 UNK         0.0000 
   9249 C(6)       39.8784  123.2886   19.4273 C.ar      1 UNK         0.0000 
   9250 C(7)       41.8515  123.4611   16.3575 C.2       1 UNK         0.0000 
   9251 C(8)       41.4107  123.8937   14.9848 C.3       1 UNK         0.0000 
   9252 H(1)       42.8829  121.9778   18.5448 H         1 UNK         0.0000 
   9253 H(2)       42.9002  121.4248   20.9325 H         1 UNK         0.0000 
   9254 H(3)       39.0406  123.2458   21.4028 H         1 UNK         0.0000 
   9255 H(4)       39.0278  123.8016   18.9958 H         1 UNK         0.0000 
   9256 H(5)       40.1706  122.0780   23.0699 H         1 UNK         0.0000 
   9257 H(6)       39.9348  123.5530   16.9335 H         1 UNK         0.0000 
   9258 H(7)       41.4889  123.0692   14.3248 H         1 UNK         0.0000 
   9259 H(8)       40.4139  124.2508   14.9645 H         1 UNK         0.0000 
   9260 H(9)       42.0911  124.6168   14.6168 H         1 UNK         0.0000 
   9261 O(1)       43.7676  133.3390   19.4793 O.3       1 UNK         0.0000 
   9262 O(2)       41.7698  127.1702   19.3635 O.2       1 UNK         0.0000 
   9263 N(1)       43.9509  127.7746   19.5512 N.am      1 UNK         0.0000 
   9264 C(1)       43.8515  129.1831   19.5000 C.ar      1 UNK         0.0000 
   9265 C(2)       42.7693  129.8713   18.9517 C.ar      1 UNK         0.0000 
   9266 C(3)       42.7623  131.2631   18.9482 C.ar      1 UNK         0.0000 
   9267 C(4)       43.8323  131.9777   19.4805 C.ar      1 UNK         0.0000 
   9268 C(5)       44.9279  131.2898   20.0007 C.ar      1 UNK         0.0000 
   9269 C(6)       44.9332  129.9022   20.0094 C.ar      1 UNK         0.0000 
   9270 C(7)       42.9601  126.8693   19.5044 C.2       1 UNK         0.0000 
   9271 C(8)       43.4010  125.4352   19.6254 C.3       1 UNK         0.0000 
   9272 H(1)       41.9288  129.3287   18.5370 H         1 UNK         0.0000 
   9273 H(2)       41.9115  131.7796   18.5211 H         1 UNK         0.0000 
   9274 H(3)       45.7711  131.8390   20.4010 H         1 UNK         0.0000 
   9275 H(4)       45.7838  129.3687   20.4154 H         1 UNK         0.0000 
   9276 H(5)       44.6410  133.7216   19.6273 H         1 UNK         0.0000 
   9277 H(6)       44.8769  127.4112   19.7204 H         1 UNK         0.0000 
   9278 H(7)       43.3227  124.9721   18.6762 H         1 UNK         0.0000 
   9279 H(8)       44.3978  125.3370   19.9694 H         1 UNK         0.0000 
   9280 H(9)       42.7205  124.9175   20.2502 H         1 UNK         0.0000 
   9281 O(1)       39.4337  126.8723   20.5721 O.3       1 UNK         0.0000 
   9282 O(2)       37.4359  125.6322   26.6161 O.2       1 UNK         0.0000 
   9283 N(1)       39.6170  125.5816   25.9852 N.am      1 UNK         0.0000 
   9284 C(1)       39.5176  125.9405   24.6223 C.ar      1 UNK         0.0000 
   9285 C(2)       38.4354  126.6264   24.0711 C.ar      1 UNK         0.0000 
   9286 C(3)       38.4284  126.9351   22.7140 C.ar      1 UNK         0.0000 
   9287 C(4)       39.4984  126.5725   21.9000 C.ar      1 UNK         0.0000 
   9288 C(5)       40.5940  125.9141   22.4571 C.ar      1 UNK         0.0000 
   9289 C(6)       40.5993  125.6012   23.8089 C.ar      1 UNK         0.0000 
   9290 C(7)       38.6262  125.4287   26.8787 C.2       1 UNK         0.0000 
   9291 C(8)       39.0671  124.9961   28.2514 C.3       1 UNK         0.0000 
   9292 H(1)       37.5949  126.9120   24.6914 H         1 UNK         0.0000 
   9293 H(2)       37.5776  127.4650   22.3037 H         1 UNK         0.0000 
   9294 H(3)       41.4372  125.6440   21.8334 H         1 UNK         0.0000 
   9295 H(4)       41.4499  125.0881   24.2404 H         1 UNK         0.0000 
   9296 H(5)       40.3071  126.8118   20.1663 H         1 UNK         0.0000 
   9297 H(6)       40.5430  125.3368   26.3027 H         1 UNK         0.0000 
   9298 H(7)       38.9888  125.8206   28.9114 H         1 UNK         0.0000 
   9299 H(8)       40.0639  124.6390   28.2717 H         1 UNK         0.0000 
   9300 H(9)       38.3866  124.2730   28.6194 H         1 UNK         0.0000 
   9301 O(1)       38.3010  130.2331   23.7569 O.3       1 UNK         0.0000 
   9302 O(2)       40.2988  136.4019   23.8727 O.2       1 UNK         0.0000 
   9303 N(1)       38.1176  135.7975   23.6850 N.am      1 UNK         0.0000 
   9304 C(1)       38.2171  134.3890   23.7362 C.ar      1 UNK         0.0000 
   9305 C(2)       39.2992  133.7008   24.2845 C.ar      1 UNK         0.0000 
   9306 C(3)       39.3063  132.3090   24.2881 C.ar      1 UNK         0.0000 
   9307 C(4)       38.2362  131.5944   23.7557 C.ar      1 UNK         0.0000 
   9308 C(5)       37.1406  132.2823   23.2355 C.ar      1 UNK         0.0000 
   9309 C(6)       37.1353  133.6699   23.2268 C.ar      1 UNK         0.0000 
   9310 C(7)       39.1084  136.7028   23.7318 C.2       1 UNK         0.0000 
   9311 C(8)       38.6676  138.1369   23.6108 C.3       1 UNK         0.0000 
   9312 H(1)       40.1398  134.2434   24.6992 H         1 UNK         0.0000 
   9313 H(2)       40.1571  131.7926   24.7151 H         1 UNK         0.0000 
   9314 H(3)       36.2975  131.7331   22.8352 H         1 UNK         0.0000 
   9315 H(4)       36.2847  134.2034   22.8209 H         1 UNK         0.0000 
   9316 H(5)       37.4275  129.8505   23.6089 H         1 UNK         0.0000 
   9317 H(6)       37.1917  136.1610   23.5158 H         1 UNK         0.0000 
   9318 H(7)       38.7458  138.6000   24.5600 H         1 UNK         0.0000 
   9319 H(8)       37.6708  138.2351   23.2668 H         1 UNK         0.0000 
   9320 H(9)       39.3480  138.6546   22.9860 H         1 UNK         0.0000 
   9321 O(1)       42.6349  125.2379    8.3393 O.3       1 UNK         0.0000 
   9322 O(2)       44.6327  126.4780    2.2953 O.2       1 UNK         0.0000 
   9323 N(1)       42.4515  126.5286    2.9262 N.am      1 UNK         0.0000 
   9324 C(1)       42.5510  126.1697    4.2891 C.ar      1 UNK         0.0000 
   9325 C(2)       43.6331  125.4838    4.8403 C.ar      1 UNK         0.0000 
   9326 C(3)       43.6402  125.1751    6.1975 C.ar      1 UNK         0.0000 
   9327 C(4)       42.5701  125.5377    7.0114 C.ar      1 UNK         0.0000 
   9328 C(5)       41.4745  126.1961    6.4543 C.ar      1 UNK         0.0000 
   9329 C(6)       41.4692  126.5090    5.1025 C.ar      1 UNK         0.0000 
   9330 C(7)       43.4423  126.6815    2.0327 C.2       1 UNK         0.0000 
   9331 C(8)       43.0014  127.1141    0.6600 C.3       1 UNK         0.0000 
   9332 H(1)       44.4737  125.1982    4.2200 H         1 UNK         0.0000 
   9333 H(2)       44.4910  124.6452    6.6077 H         1 UNK         0.0000 
   9334 H(3)       40.6314  126.4662    7.0780 H         1 UNK         0.0000 
   9335 H(4)       40.6186  127.0220    4.6710 H         1 UNK         0.0000 
   9336 H(5)       41.7614  125.2984    8.7451 H         1 UNK         0.0000 
   9337 H(6)       41.5256  126.7734    2.6087 H         1 UNK         0.0000 
   9338 H(7)       43.0797  126.2896    0.0000 H         1 UNK         0.0000 
   9339 H(8)       42.0047  127.4712    0.6397 H         1 UNK         0.0000 
   9340 H(9)       43.6819  127.8372    0.2920 H         1 UNK         0.0000 
   9341 O(1)       45.3584  136.5594    5.1545 O.3       1 UNK         0.0000 
   9342 O(2)       43.3605  130.3906    5.0387 O.2       1 UNK         0.0000 
   9343 N(1)       45.5417  130.9950    5.2264 N.am      1 UNK         0.0000 
   9344 C(1)       45.4422  132.4035    5.1752 C.ar      1 UNK         0.0000 
   9345 C(2)       44.3601  133.0917    4.6269 C.ar      1 UNK         0.0000 
   9346 C(3)       44.3530  134.4835    4.6234 C.ar      1 UNK         0.0000 
   9347 C(4)       45.4231  135.1981    5.1557 C.ar      1 UNK         0.0000 
   9348 C(5)       46.5187  134.5102    5.6759 C.ar      1 UNK         0.0000 
   9349 C(6)       46.5240  133.1226    5.6846 C.ar      1 UNK         0.0000 
   9350 C(7)       44.5509  130.0897    5.1796 C.2       1 UNK         0.0000 
   9351 C(8)       44.9918  128.6556    5.3006 C.3       1 UNK         0.0000 
   9352 H(1)       43.5195  132.5491    4.2122 H         1 UNK         0.0000 
   9353 H(2)       43.5022  135.0000    4.1963 H         1 UNK         0.0000 
   9354 H(3)       47.3618  135.0594    6.0762 H         1 UNK         0.0000 
   9355 H(4)       47.3746  132.5891    6.0906 H         1 UNK         0.0000 
   9356 H(5)       46.2318  136.9420    5.3025 H         1 UNK         0.0000 
   9357 H(6)       46.4677  130.6316    5.3956 H         1 UNK         0.0000 
   9358 H(7)       44.9135  128.1925    4.3514 H         1 UNK         0.0000 
   9359 H(8)       45.9885  128.5574    5.6446 H         1 UNK         0.0000 
   9360 H(9)       44.3113  128.1379    5.9254 H         1 UNK         0.0000 
   9361 O(1)       42.6153  144.7750    6.2473 O.3       1 UNK         0.0000 
   9362 O(2)       40.6174  143.5349   12.2913 O.2       1 UNK         0.0000 
   9363 N(1)       42.7986  143.4843   11.6604 N.am      1 UNK         0.0000 
   9364 C(1)       42.6991  143.8432   10.2975 C.ar      1 UNK         0.0000 
   9365 C(2)       41.6170  144.5291    9.7463 C.ar      1 UNK         0.0000 
   9366 C(3)       41.6099  144.8378    8.3892 C.ar      1 UNK         0.0000 
   9367 C(4)       42.6800  144.4752    7.5752 C.ar      1 UNK         0.0000 
   9368 C(5)       43.7756  143.8168    8.1323 C.ar      1 UNK         0.0000 
   9369 C(6)       43.7809  143.5039    9.4841 C.ar      1 UNK         0.0000 
   9370 C(7)       41.8078  143.3315   12.5539 C.2       1 UNK         0.0000 
   9371 C(8)       42.2487  142.8988   13.9266 C.3       1 UNK         0.0000 
   9372 H(1)       40.7764  144.8147   10.3666 H         1 UNK         0.0000 
   9373 H(2)       40.7591  145.3678    7.9789 H         1 UNK         0.0000 
   9374 H(3)       44.6187  143.5467    7.5086 H         1 UNK         0.0000 
   9375 H(4)       44.6315  142.9909    9.9156 H         1 UNK         0.0000 
   9376 H(5)       43.4887  144.7145    5.8415 H         1 UNK         0.0000 
   9377 H(6)       43.7245  143.2395   11.9779 H         1 UNK         0.0000 
   9378 H(7)       42.1704  143.7233   14.5866 H         1 UNK         0.0000 
   9379 H(8)       43.2454  142.5417   13.9469 H         1 UNK         0.0000 
   9380 H(9)       41.5682  142.1757   14.2946 H         1 UNK         0.0000 
   9381 O(1)       46.9687  133.4535    9.4321 O.3       1 UNK         0.0000 
   9382 O(2)       48.9666  139.6223    9.5479 O.2       1 UNK         0.0000 
   9383 N(1)       46.7854  139.0179    9.3602 N.am      1 UNK         0.0000 
   9384 C(1)       46.8849  137.6094    9.4114 C.ar      1 UNK         0.0000 
   9385 C(2)       47.9670  136.9212    9.9597 C.ar      1 UNK         0.0000 
   9386 C(3)       47.9741  135.5294    9.9633 C.ar      1 UNK         0.0000 
   9387 C(4)       46.9040  134.8148    9.4309 C.ar      1 UNK         0.0000 
   9388 C(5)       45.8084  135.5027    8.9107 C.ar      1 UNK         0.0000 
   9389 C(6)       45.8031  136.8903    8.9020 C.ar      1 UNK         0.0000 
   9390 C(7)       47.7762  139.9232    9.4070 C.2       1 UNK         0.0000 
   9391 C(8)       47.3353  141.3573    9.2860 C.3       1 UNK         0.0000 
   9392 H(1)       48.8076  137.4638   10.3744 H         1 UNK         0.0000 
   9393 H(2)       48.8249  135.0130   10.3903 H         1 UNK         0.0000 
   9394 H(3)       44.9653  134.9535    8.5104 H         1 UNK         0.0000 
   9395 H(4)       44.9525  137.4238    8.4961 H         1 UNK         0.0000 
   9396 H(5)       46.0953  133.0709    9.2841 H         1 UNK         0.0000 
   9397 H(6)       45.8595  139.3814    9.1910 H         1 UNK         0.0000 
   9398 H(7)       47.4136  141.8204   10.2352 H         1 UNK         0.0000 
   9399 H(8)       46.3386  141.4555    8.9420 H         1 UNK         0.0000 
   9400 H(9)       48.0158  141.8750    8.6612 H         1 UNK         0.0000 
   9401 O(1)       37.1486  145.6512   15.5017 O.3       1 UNK         0.0000 
   9402 O(2)       39.1465  146.8913    9.4577 O.2       1 UNK         0.0000 
   9403 N(1)       36.9653  146.9419   10.0886 N.am      1 UNK         0.0000 
   9404 C(1)       37.0648  146.5830   11.4515 C.ar      1 UNK         0.0000 
   9405 C(2)       38.1469  145.8971   12.0027 C.ar      1 UNK         0.0000 
   9406 C(3)       38.1540  145.5884   13.3599 C.ar      1 UNK         0.0000 
   9407 C(4)       37.0839  145.9510   14.1738 C.ar      1 UNK         0.0000 
   9408 C(5)       35.9883  146.6094   13.6167 C.ar      1 UNK         0.0000 
   9409 C(6)       35.9830  146.9223   12.2649 C.ar      1 UNK         0.0000 
   9410 C(7)       37.9561  147.0948    9.1951 C.2       1 UNK         0.0000 
   9411 C(8)       37.5152  147.5274    7.8224 C.3       1 UNK         0.0000 
   9412 H(1)       38.9875  145.6115   11.3824 H         1 UNK         0.0000 
   9413 H(2)       39.0048  145.0585   13.7701 H         1 UNK         0.0000 
   9414 H(3)       35.1451  146.8795   14.2404 H         1 UNK         0.0000 
   9415 H(4)       35.1324  147.4353   11.8334 H         1 UNK         0.0000 
   9416 H(5)       36.2752  145.7117   15.9075 H         1 UNK         0.0000 
   9417 H(6)       36.0393  147.1867    9.7711 H         1 UNK         0.0000 
   9418 H(7)       37.5935  146.7029    7.1624 H         1 UNK         0.0000 
   9419 H(8)       36.5184  147.8845    7.8021 H         1 UNK         0.0000 
   9420 H(9)       38.1957  148.2505    7.4544 H         1 UNK         0.0000 
   9421 O(1)       38.2814  142.2904   12.3169 O.3       1 UNK         0.0000 
   9422 O(2)       36.2835  136.1216   12.2011 O.2       1 UNK         0.0000 
   9423 N(1)       38.4647  136.7260   12.3888 N.am      1 UNK         0.0000 
   9424 C(1)       38.3652  138.1344   12.3376 C.ar      1 UNK         0.0000 
   9425 C(2)       37.2831  138.8226   11.7893 C.ar      1 UNK         0.0000 
   9426 C(3)       37.2760  140.2145   11.7858 C.ar      1 UNK         0.0000 
   9427 C(4)       38.3461  140.9291   12.3181 C.ar      1 UNK         0.0000 
   9428 C(5)       39.4417  140.2411   12.8383 C.ar      1 UNK         0.0000 
   9429 C(6)       39.4470  138.8536   12.8470 C.ar      1 UNK         0.0000 
   9430 C(7)       37.4739  135.8207   12.3420 C.2       1 UNK         0.0000 
   9431 C(8)       37.9148  134.3866   12.4630 C.3       1 UNK         0.0000 
   9432 H(1)       36.4425  138.2801   11.3746 H         1 UNK         0.0000 
   9433 H(2)       36.4252  140.7309   11.3587 H         1 UNK         0.0000 
   9434 H(3)       40.2848  140.7904   13.2386 H         1 UNK         0.0000 
   9435 H(4)       40.2976  138.3201   13.2530 H         1 UNK         0.0000 
   9436 H(5)       39.1548  142.6730   12.4649 H         1 UNK         0.0000 
   9437 H(6)       39.3907  136.3625   12.5580 H         1 UNK         0.0000 
   9438 H(7)       37.8365  133.9235   11.5138 H         1 UNK         0.0000 
   9439 H(8)       38.9115  134.2884   12.8070 H         1 UNK         0.0000 
   9440 H(9)       37.2343  133.8689   13.0878 H         1 UNK         0.0000 
   9441 O(1)       42.6153  150.5060   13.4097 O.3       1 UNK         0.0000 
   9442 O(2)       40.6174  149.2659   19.4537 O.2       1 UNK         0.0000 
   9443 N(1)       42.7986  149.2153   18.8228 N.am      1 UNK         0.0000 
   9444 C(1)       42.6991  149.5742   17.4599 C.ar      1 UNK         0.0000 
   9445 C(2)       41.6170  150.2601   16.9087 C.ar      1 UNK         0.0000 
   9446 C(3)       41.6099  150.5688   15.5516 C.ar      1 UNK         0.0000 
   9447 C(4)       42.6800  150.2062   14.7376 C.ar      1 UNK         0.0000 
   9448 C(5)       43.7756  149.5478   15.2947 C.ar      1 UNK         0.0000 
   9449 C(6)       43.7809  149.2349   16.6465 C.ar      1 UNK         0.0000 
   9450 C(7)       41.8078  149.0624   19.7163 C.2       1 UNK         0.0000 
   9451 C(8)       42.2487  148.6298   21.0890 C.3       1 UNK         0.0000 
   9452 H(1)       40.7764  150.5457   17.5290 H         1 UNK         0.0000 
   9453 H(2)       40.7591  151.0987   15.1413 H         1 UNK         0.0000 
   9454 H(3)       44.6187  149.2777   14.6710 H         1 UNK         0.0000 
   9455 H(4)       44.6315  148.7218   17.0780 H         1 UNK         0.0000 
   9456 H(5)       43.4887  150.4455   13.0039 H         1 UNK         0.0000 
   9457 H(6)       43.7245  148.9705   19.1403 H         1 UNK         0.0000 
   9458 H(7)       42.1704  149.4542   21.7490 H         1 UNK         0.0000 
   9459 H(8)       43.2454  148.2727   21.1093 H         1 UNK         0.0000 
   9460 H(9)       41.5682  147.9067   21.4570 H         1 UNK         0.0000 
   9461 O(1)       46.9687  139.1845   16.5945 O.3       1 UNK         0.0000 
   9462 O(2)       48.9666  145.3533   16.7103 O.2       1 UNK         0.0000 
   9463 N(1)       46.7854  144.7489   16.5226 N.am      1 UNK         0.0000 
   9464 C(1)       46.8849  143.3404   16.5738 C.ar      1 UNK         0.0000 
   9465 C(2)       47.9670  142.6522   17.1221 C.ar      1 UNK         0.0000 
   9466 C(3)       47.9741  141.2604   17.1257 C.ar      1 UNK         0.0000 
   9467 C(4)       46.9040  140.5458   16.5933 C.ar      1 UNK         0.0000 
   9468 C(5)       45.8084  141.2337   16.0731 C.ar      1 UNK         0.0000 
   9469 C(6)       45.8031  142.6212   16.0644 C.ar      1 UNK         0.0000 
   9470 C(7)       47.7762  145.6542   16.5694 C.2       1 UNK         0.0000 
   9471 C(8)       47.3353  147.0883   16.4484 C.3       1 UNK         0.0000 
   9472 H(1)       48.8076  143.1947   17.5368 H         1 UNK         0.0000 
   9473 H(2)       48.8249  140.7439   17.5527 H         1 UNK         0.0000 
   9474 H(3)       44.9653  140.6845   15.6728 H         1 UNK         0.0000 
   9475 H(4)       44.9525  143.1548   15.6585 H         1 UNK         0.0000 
   9476 H(5)       46.0953  138.8019   16.4465 H         1 UNK         0.0000 
   9477 H(6)       45.8595  145.1123   16.3534 H         1 UNK         0.0000 
   9478 H(7)       47.4136  147.5514   17.3976 H         1 UNK         0.0000 
   9479 H(8)       46.3386  147.1864   16.1044 H         1 UNK         0.0000 
   9480 H(9)       48.0158  147.6060   15.8236 H         1 UNK         0.0000 
   9481 O(1)       42.6349  136.6998   22.6641 O.3       1 UNK         0.0000 
   9482 O(2)       44.6327  137.9399   16.6201 O.2       1 UNK         0.0000 
   9483 N(1)       42.4515  137.9906   17.2510 N.am      1 UNK         0.0000 
   9484 C(1)       42.5510  137.6316   18.6139 C.ar      1 UNK         0.0000 
   9485 C(2)       43.6331  136.9458   19.1651 C.ar      1 UNK         0.0000 
   9486 C(3)       43.6402  136.6370   20.5223 C.ar      1 UNK         0.0000 
   9487 C(4)       42.5701  136.9997   21.3362 C.ar      1 UNK         0.0000 
   9488 C(5)       41.4745  137.6580   20.7791 C.ar      1 UNK         0.0000 
   9489 C(6)       41.4692  137.9709   19.4273 C.ar      1 UNK         0.0000 
   9490 C(7)       43.4423  138.1434   16.3575 C.2       1 UNK         0.0000 
   9491 C(8)       43.0014  138.5760   14.9848 C.3       1 UNK         0.0000 
   9492 H(1)       44.4737  136.6601   18.5448 H         1 UNK         0.0000 
   9493 H(2)       44.4910  136.1071   20.9325 H         1 UNK         0.0000 
   9494 H(3)       40.6314  137.9281   21.4028 H         1 UNK         0.0000 
   9495 H(4)       40.6186  138.4840   18.9958 H         1 UNK         0.0000 
   9496 H(5)       41.7614  136.7604   23.0699 H         1 UNK         0.0000 
   9497 H(6)       41.5256  138.2353   16.9335 H         1 UNK         0.0000 
   9498 H(7)       43.0797  137.7516   14.3248 H         1 UNK         0.0000 
   9499 H(8)       42.0047  138.9332   14.9645 H         1 UNK         0.0000 
   9500 H(9)       43.6819  139.2991   14.6168 H         1 UNK         0.0000 
   9501 O(1)       45.3584  148.0213   19.4793 O.3       1 UNK         0.0000 
   9502 O(2)       43.3605  141.8526   19.3635 O.2       1 UNK         0.0000 
   9503 N(1)       45.5417  142.4570   19.5512 N.am      1 UNK         0.0000 
   9504 C(1)       45.4422  143.8654   19.5000 C.ar      1 UNK         0.0000 
   9505 C(2)       44.3601  144.5536   18.9517 C.ar      1 UNK         0.0000 
   9506 C(3)       44.3530  145.9454   18.9482 C.ar      1 UNK         0.0000 
   9507 C(4)       45.4231  146.6600   19.4805 C.ar      1 UNK         0.0000 
   9508 C(5)       46.5187  145.9721   20.0007 C.ar      1 UNK         0.0000 
   9509 C(6)       46.5240  144.5846   20.0094 C.ar      1 UNK         0.0000 
   9510 C(7)       44.5509  141.5516   19.5044 C.2       1 UNK         0.0000 
   9511 C(8)       44.9918  140.1175   19.6254 C.3       1 UNK         0.0000 
   9512 H(1)       43.5195  144.0111   18.5370 H         1 UNK         0.0000 
   9513 H(2)       43.5022  146.4619   18.5211 H         1 UNK         0.0000 
   9514 H(3)       47.3618  146.5214   20.4010 H         1 UNK         0.0000 
   9515 H(4)       47.3746  144.0510   20.4154 H         1 UNK         0.0000 
   9516 H(5)       46.2318  148.4039   19.6273 H         1 UNK         0.0000 
   9517 H(6)       46.4677  142.0935   19.7204 H         1 UNK         0.0000 
   9518 H(7)       44.9135  139.6544   18.6762 H         1 UNK         0.0000 
   9519 H(8)       45.9885  140.0194   19.9694 H         1 UNK         0.0000 
   9520 H(9)       44.3113  139.5998   20.2502 H         1 UNK         0.0000 
   9521 O(1)       41.0245  141.5546   20.5721 O.3       1 UNK         0.0000 
   9522 O(2)       39.0267  140.3145   26.6161 O.2       1 UNK         0.0000 
   9523 N(1)       41.2078  140.2639   25.9852 N.am      1 UNK         0.0000 
   9524 C(1)       41.1083  140.6228   24.6223 C.ar      1 UNK         0.0000 
   9525 C(2)       40.0262  141.3087   24.0711 C.ar      1 UNK         0.0000 
   9526 C(3)       40.0192  141.6174   22.7140 C.ar      1 UNK         0.0000 
   9527 C(4)       41.0892  141.2548   21.9000 C.ar      1 UNK         0.0000 
   9528 C(5)       42.1848  140.5964   22.4571 C.ar      1 UNK         0.0000 
   9529 C(6)       42.1901  140.2835   23.8089 C.ar      1 UNK         0.0000 
   9530 C(7)       40.2170  140.1111   26.8787 C.2       1 UNK         0.0000 
   9531 C(8)       40.6579  139.6784   28.2514 C.3       1 UNK         0.0000 
   9532 H(1)       39.1857  141.5943   24.6914 H         1 UNK         0.0000 
   9533 H(2)       39.1683  142.1474   22.3037 H         1 UNK         0.0000 
   9534 H(3)       43.0280  140.3263   21.8334 H         1 UNK         0.0000 
   9535 H(4)       43.0407  139.7705   24.2404 H         1 UNK         0.0000 
   9536 H(5)       41.8979  141.4941   20.1663 H         1 UNK         0.0000 
   9537 H(6)       42.1338  140.0191   26.3027 H         1 UNK         0.0000 
   9538 H(7)       40.5796  140.5029   28.9114 H         1 UNK         0.0000 
   9539 H(8)       41.6547  139.3213   28.2717 H         1 UNK         0.0000 
   9540 H(9)       39.9774  138.9553   28.6194 H         1 UNK         0.0000 
   9541 O(1)       39.8917  144.9154   23.7569 O.3       1 UNK         0.0000 
   9542 O(2)       41.8896  151.0842   23.8727 O.2       1 UNK         0.0000 
   9543 N(1)       39.7084  150.4798   23.6850 N.am      1 UNK         0.0000 
   9544 C(1)       39.8079  149.0714   23.7362 C.ar      1 UNK         0.0000 
   9545 C(2)       40.8900  148.3832   24.2845 C.ar      1 UNK         0.0000 
   9546 C(3)       40.8971  146.9914   24.2881 C.ar      1 UNK         0.0000 
   9547 C(4)       39.8270  146.2767   23.7557 C.ar      1 UNK         0.0000 
   9548 C(5)       38.7314  146.9647   23.2355 C.ar      1 UNK         0.0000 
   9549 C(6)       38.7261  148.3522   23.2268 C.ar      1 UNK         0.0000 
   9550 C(7)       40.6992  151.3851   23.7318 C.2       1 UNK         0.0000 
   9551 C(8)       40.2583  152.8193   23.6108 C.3       1 UNK         0.0000 
   9552 H(1)       41.7306  148.9257   24.6992 H         1 UNK         0.0000 
   9553 H(2)       41.7479  146.4749   24.7151 H         1 UNK         0.0000 
   9554 H(3)       37.8883  146.4154   22.8352 H         1 UNK         0.0000 
   9555 H(4)       37.8755  148.8857   22.8209 H         1 UNK         0.0000 
   9556 H(5)       39.0183  144.5328   23.6089 H         1 UNK         0.0000 
   9557 H(6)       38.7824  150.8433   23.5158 H         1 UNK         0.0000 
   9558 H(7)       40.3366  153.2824   24.5600 H         1 UNK         0.0000 
   9559 H(8)       39.2616  152.9174   23.2668 H         1 UNK         0.0000 
   9560 H(9)       40.9388  153.3369   22.9860 H         1 UNK         0.0000 
   9561 O(1)       44.2256  139.9202    8.3393 O.3       1 UNK         0.0000 
   9562 O(2)       46.2235  141.1603    2.2953 O.2       1 UNK         0.0000 
   9563 N(1)       44.0423  141.2110    2.9262 N.am      1 UNK         0.0000 
   9564 C(1)       44.1418  140.8520    4.2891 C.ar      1 UNK         0.0000 
   9565 C(2)       45.2239  140.1662    4.8403 C.ar      1 UNK         0.0000 
   9566 C(3)       45.2309  139.8574    6.1975 C.ar      1 UNK         0.0000 
   9567 C(4)       44.1609  140.2201    7.0114 C.ar      1 UNK         0.0000 
   9568 C(5)       43.0653  140.8784    6.4543 C.ar      1 UNK         0.0000 
   9569 C(6)       43.0600  141.1913    5.1025 C.ar      1 UNK         0.0000 
   9570 C(7)       45.0331  141.3638    2.0327 C.2       1 UNK         0.0000 
   9571 C(8)       44.5922  141.7964    0.6600 C.3       1 UNK         0.0000 
   9572 H(1)       46.0645  139.8805    4.2200 H         1 UNK         0.0000 
   9573 H(2)       46.0818  139.3275    6.6077 H         1 UNK         0.0000 
   9574 H(3)       42.2221  141.1485    7.0780 H         1 UNK         0.0000 
   9575 H(4)       42.2094  141.7044    4.6710 H         1 UNK         0.0000 
   9576 H(5)       43.3522  139.9808    8.7451 H         1 UNK         0.0000 
   9577 H(6)       43.1163  141.4557    2.6087 H         1 UNK         0.0000 
   9578 H(7)       44.6705  140.9720    0.0000 H         1 UNK         0.0000 
   9579 H(8)       43.5954  142.1536    0.6397 H         1 UNK         0.0000 
   9580 H(9)       45.2727  142.5195    0.2920 H         1 UNK         0.0000 
   9581 O(1)       46.9491  151.2417    5.1545 O.3       1 UNK         0.0000 
   9582 O(2)       44.9513  145.0729    5.0387 O.2       1 UNK         0.0000 
   9583 N(1)       47.1325  145.6774    5.2264 N.am      1 UNK         0.0000 
   9584 C(1)       47.0330  147.0858    5.1752 C.ar      1 UNK         0.0000 
   9585 C(2)       45.9509  147.7740    4.6269 C.ar      1 UNK         0.0000 
   9586 C(3)       45.9438  149.1658    4.6234 C.ar      1 UNK         0.0000 
   9587 C(4)       47.0139  149.8804    5.1557 C.ar      1 UNK         0.0000 
   9588 C(5)       48.1095  149.1925    5.6759 C.ar      1 UNK         0.0000 
   9589 C(6)       48.1148  147.8050    5.6846 C.ar      1 UNK         0.0000 
   9590 C(7)       46.1417  144.7720    5.1796 C.2       1 UNK         0.0000 
   9591 C(8)       46.5826  143.3379    5.3006 C.3       1 UNK         0.0000 
   9592 H(1)       45.1103  147.2315    4.2122 H         1 UNK         0.0000 
   9593 H(2)       45.0930  149.6823    4.1963 H         1 UNK         0.0000 
   9594 H(3)       48.9526  149.7418    6.0762 H         1 UNK         0.0000 
   9595 H(4)       48.9654  147.2714    6.0906 H         1 UNK         0.0000 
   9596 H(5)       47.8226  151.6243    5.3025 H         1 UNK         0.0000 
   9597 H(6)       48.0584  145.3139    5.3956 H         1 UNK         0.0000 
   9598 H(7)       46.5043  142.8748    4.3514 H         1 UNK         0.0000 
   9599 H(8)       47.5793  143.2398    5.6446 H         1 UNK         0.0000 
   9600 H(9)       45.9021  142.8202    5.9254 H         1 UNK         0.0000 
   9601 O(1)       35.3752   12.6340    6.2473 O.3       1 UNK         0.0000 
   9602 O(2)       33.3774   11.3940   12.2913 O.2       1 UNK         0.0000 
   9603 N(1)       35.5585   11.3433   11.6604 N.am      1 UNK         0.0000 
   9604 C(1)       35.4591   11.7022   10.2975 C.ar      1 UNK         0.0000 
   9605 C(2)       34.3769   12.3881    9.7463 C.ar      1 UNK         0.0000 
   9606 C(3)       34.3699   12.6969    8.3892 C.ar      1 UNK         0.0000 
   9607 C(4)       35.4399   12.3342    7.5752 C.ar      1 UNK         0.0000 
   9608 C(5)       36.5355   11.6758    8.1323 C.ar      1 UNK         0.0000 
   9609 C(6)       36.5408   11.3630    9.4841 C.ar      1 UNK         0.0000 
   9610 C(7)       34.5678   11.1905   12.5539 C.2       1 UNK         0.0000 
   9611 C(8)       35.0086   10.7579   13.9266 C.3       1 UNK         0.0000 
   9612 H(1)       33.5364   12.6738   10.3666 H         1 UNK         0.0000 
   9613 H(2)       33.5191   13.2268    7.9789 H         1 UNK         0.0000 
   9614 H(3)       37.3787   11.4057    7.5086 H         1 UNK         0.0000 
   9615 H(4)       37.3914   10.8499    9.9156 H         1 UNK         0.0000 
   9616 H(5)       36.2486   12.5735    5.8415 H         1 UNK         0.0000 
   9617 H(6)       36.4845   11.0986   11.9779 H         1 UNK         0.0000 
   9618 H(7)       34.9303   11.5823   14.5866 H         1 UNK         0.0000 
   9619 H(8)       36.0054   10.4007   13.9469 H         1 UNK         0.0000 
   9620 H(9)       34.3281   10.0347   14.2946 H         1 UNK         0.0000 
   9621 O(1)       39.7287    1.3125    9.4321 O.3       1 UNK         0.0000 
   9622 O(2)       41.7265    7.4813    9.5479 O.2       1 UNK         0.0000 
   9623 N(1)       39.5454    6.8769    9.3602 N.am      1 UNK         0.0000 
   9624 C(1)       39.6448    5.4685    9.4114 C.ar      1 UNK         0.0000 
   9625 C(2)       40.7270    4.7803    9.9597 C.ar      1 UNK         0.0000 
   9626 C(3)       40.7340    3.3885    9.9633 C.ar      1 UNK         0.0000 
   9627 C(4)       39.6640    2.6738    9.4309 C.ar      1 UNK         0.0000 
   9628 C(5)       38.5684    3.3618    8.9107 C.ar      1 UNK         0.0000 
   9629 C(6)       38.5631    4.7493    8.9020 C.ar      1 UNK         0.0000 
   9630 C(7)       40.5361    7.7822    9.4070 C.2       1 UNK         0.0000 
   9631 C(8)       40.0953    9.2163    9.2860 C.3       1 UNK         0.0000 
   9632 H(1)       41.5675    5.3228   10.3744 H         1 UNK         0.0000 
   9633 H(2)       41.5848    2.8720   10.3903 H         1 UNK         0.0000 
   9634 H(3)       37.7252    2.8125    8.5104 H         1 UNK         0.0000 
   9635 H(4)       37.7124    5.2828    8.4961 H         1 UNK         0.0000 
   9636 H(5)       38.8553    0.9299    9.2841 H         1 UNK         0.0000 
   9637 H(6)       38.6194    7.2404    9.1910 H         1 UNK         0.0000 
   9638 H(7)       40.1735    9.6795   10.2352 H         1 UNK         0.0000 
   9639 H(8)       39.0985    9.3145    8.9420 H         1 UNK         0.0000 
   9640 H(9)       40.7758    9.7340    8.6612 H         1 UNK         0.0000 
   9641 O(1)       29.9086   13.5102   15.5017 O.3       1 UNK         0.0000 
   9642 O(2)       31.9064   14.7503    9.4577 O.2       1 UNK         0.0000 
   9643 N(1)       29.7253   14.8009   10.0886 N.am      1 UNK         0.0000 
   9644 C(1)       29.8247   14.4420   11.4515 C.ar      1 UNK         0.0000 
   9645 C(2)       30.9069   13.7561   12.0027 C.ar      1 UNK         0.0000 
   9646 C(3)       30.9139   13.4474   13.3599 C.ar      1 UNK         0.0000 
   9647 C(4)       29.8439   13.8100   14.1738 C.ar      1 UNK         0.0000 
   9648 C(5)       28.7483   14.4684   13.6167 C.ar      1 UNK         0.0000 
   9649 C(6)       28.7430   14.7813   12.2649 C.ar      1 UNK         0.0000 
   9650 C(7)       30.7160   14.9538    9.1951 C.2       1 UNK         0.0000 
   9651 C(8)       30.2752   15.3864    7.8224 C.3       1 UNK         0.0000 
   9652 H(1)       31.7474   13.4705   11.3824 H         1 UNK         0.0000 
   9653 H(2)       31.7647   12.9175   13.7701 H         1 UNK         0.0000 
   9654 H(3)       27.9051   14.7385   14.2404 H         1 UNK         0.0000 
   9655 H(4)       27.8923   15.2944   11.8334 H         1 UNK         0.0000 
   9656 H(5)       29.0351   13.5707   15.9075 H         1 UNK         0.0000 
   9657 H(6)       28.7993   15.0457    9.7711 H         1 UNK         0.0000 
   9658 H(7)       30.3534   14.5620    7.1624 H         1 UNK         0.0000 
   9659 H(8)       29.2784   15.7436    7.8021 H         1 UNK         0.0000 
   9660 H(9)       30.9557   16.1095    7.4544 H         1 UNK         0.0000 
   9661 O(1)       31.0413   10.1494   12.3169 O.3       1 UNK         0.0000 
   9662 O(2)       29.0435    3.9806   12.2011 O.2       1 UNK         0.0000 
   9663 N(1)       31.2246    4.5850   12.3888 N.am      1 UNK         0.0000 
   9664 C(1)       31.1252    5.9935   12.3376 C.ar      1 UNK         0.0000 
   9665 C(2)       30.0430    6.6817   11.7893 C.ar      1 UNK         0.0000 
   9666 C(3)       30.0360    8.0735   11.7858 C.ar      1 UNK         0.0000 
   9667 C(4)       31.1060    8.7881   12.3181 C.ar      1 UNK         0.0000 
   9668 C(5)       32.2016    8.1002   12.8383 C.ar      1 UNK         0.0000 
   9669 C(6)       32.2069    6.7126   12.8470 C.ar      1 UNK         0.0000 
   9670 C(7)       30.2339    3.6797   12.3420 C.2       1 UNK         0.0000 
   9671 C(8)       30.6747    2.2456   12.4630 C.3       1 UNK         0.0000 
   9672 H(1)       29.2025    6.1391   11.3746 H         1 UNK         0.0000 
   9673 H(2)       29.1852    8.5900   11.3587 H         1 UNK         0.0000 
   9674 H(3)       33.0448    8.6494   13.2386 H         1 UNK         0.0000 
   9675 H(4)       33.0576    6.1791   13.2530 H         1 UNK         0.0000 
   9676 H(5)       31.9147   10.5320   12.4649 H         1 UNK         0.0000 
   9677 H(6)       32.1506    4.2215   12.5580 H         1 UNK         0.0000 
   9678 H(7)       30.5965    1.7825   11.5138 H         1 UNK         0.0000 
   9679 H(8)       31.6715    2.1474   12.8070 H         1 UNK         0.0000 
   9680 H(9)       29.9942    1.7279   13.0878 H         1 UNK         0.0000 
   9681 O(1)       35.3752   18.3650   13.4097 O.3       1 UNK         0.0000 
   9682 O(2)       33.3774   17.1249   19.4537 O.2       1 UNK         0.0000 
   9683 N(1)       35.5585   17.0743   18.8228 N.am      1 UNK         0.0000 
   9684 C(1)       35.4591   17.4332   17.4599 C.ar      1 UNK         0.0000 
   9685 C(2)       34.3769   18.1191   16.9087 C.ar      1 UNK         0.0000 
   9686 C(3)       34.3699   18.4278   15.5516 C.ar      1 UNK         0.0000 
   9687 C(4)       35.4399   18.0652   14.7376 C.ar      1 UNK         0.0000 
   9688 C(5)       36.5355   17.4068   15.2947 C.ar      1 UNK         0.0000 
   9689 C(6)       36.5408   17.0939   16.6465 C.ar      1 UNK         0.0000 
   9690 C(7)       34.5678   16.9215   19.7163 C.2       1 UNK         0.0000 
   9691 C(8)       35.0086   16.4888   21.0890 C.3       1 UNK         0.0000 
   9692 H(1)       33.5364   18.4047   17.5290 H         1 UNK         0.0000 
   9693 H(2)       33.5191   18.9577   15.1413 H         1 UNK         0.0000 
   9694 H(3)       37.3787   17.1367   14.6710 H         1 UNK         0.0000 
   9695 H(4)       37.3914   16.5809   17.0780 H         1 UNK         0.0000 
   9696 H(5)       36.2486   18.3045   13.0039 H         1 UNK         0.0000 
   9697 H(6)       36.4845   16.8295   19.1403 H         1 UNK         0.0000 
   9698 H(7)       34.9303   17.3133   21.7490 H         1 UNK         0.0000 
   9699 H(8)       36.0054   16.1317   21.1093 H         1 UNK         0.0000 
   9700 H(9)       34.3281   15.7657   21.4570 H         1 UNK         0.0000 
   9701 O(1)       39.7287    7.0435   16.5945 O.3       1 UNK         0.0000 
   9702 O(2)       41.7265   13.2123   16.7103 O.2       1 UNK         0.0000 
   9703 N(1)       39.5454   12.6079   16.5226 N.am      1 UNK         0.0000 
   9704 C(1)       39.6448   11.1994   16.5738 C.ar      1 UNK         0.0000 
   9705 C(2)       40.7270   10.5112   17.1221 C.ar      1 UNK         0.0000 
   9706 C(3)       40.7340    9.1194   17.1257 C.ar      1 UNK         0.0000 
   9707 C(4)       39.6640    8.4048   16.5933 C.ar      1 UNK         0.0000 
   9708 C(5)       38.5684    9.0927   16.0731 C.ar      1 UNK         0.0000 
   9709 C(6)       38.5631   10.4803   16.0644 C.ar      1 UNK         0.0000 
   9710 C(7)       40.5361   13.5132   16.5694 C.2       1 UNK         0.0000 
   9711 C(8)       40.0953   14.9473   16.4484 C.3       1 UNK         0.0000 
   9712 H(1)       41.5675   11.0538   17.5368 H         1 UNK         0.0000 
   9713 H(2)       41.5848    8.6029   17.5527 H         1 UNK         0.0000 
   9714 H(3)       37.7252    8.5435   15.6728 H         1 UNK         0.0000 
   9715 H(4)       37.7124   11.0138   15.6585 H         1 UNK         0.0000 
   9716 H(5)       38.8553    6.6609   16.4465 H         1 UNK         0.0000 
   9717 H(6)       38.6194   12.9713   16.3534 H         1 UNK         0.0000 
   9718 H(7)       40.1735   15.4104   17.3976 H         1 UNK         0.0000 
   9719 H(8)       39.0985   15.0455   16.1044 H         1 UNK         0.0000 
   9720 H(9)       40.7758   15.4650   15.8236 H         1 UNK         0.0000 
   9721 O(1)       35.3948    4.5589   22.6641 O.3       1 UNK         0.0000 
   9722 O(2)       37.3926    5.7989   16.6201 O.2       1 UNK         0.0000 
   9723 N(1)       35.2115    5.8496   17.2510 N.am      1 UNK         0.0000 
   9724 C(1)       35.3109    5.4907   18.6139 C.ar      1 UNK         0.0000 
   9725 C(2)       36.3931    4.8048   19.1651 C.ar      1 UNK         0.0000 
   9726 C(3)       36.4001    4.4960   20.5223 C.ar      1 UNK         0.0000 
   9727 C(4)       35.3301    4.8587   21.3362 C.ar      1 UNK         0.0000 
   9728 C(5)       34.2345    5.5171   20.7791 C.ar      1 UNK         0.0000 
   9729 C(6)       34.2292    5.8299   19.4273 C.ar      1 UNK         0.0000 
   9730 C(7)       36.2022    6.0024   16.3575 C.2       1 UNK         0.0000 
   9731 C(8)       35.7614    6.4350   14.9848 C.3       1 UNK         0.0000 
   9732 H(1)       37.2336    4.5191   18.5448 H         1 UNK         0.0000 
   9733 H(2)       37.2509    3.9661   20.9325 H         1 UNK         0.0000 
   9734 H(3)       33.3913    5.7872   21.4028 H         1 UNK         0.0000 
   9735 H(4)       33.3786    6.3430   18.9958 H         1 UNK         0.0000 
   9736 H(5)       34.5214    4.6194   23.0699 H         1 UNK         0.0000 
   9737 H(6)       34.2855    6.0943   16.9335 H         1 UNK         0.0000 
   9738 H(7)       35.8397    5.6106   14.3248 H         1 UNK         0.0000 
   9739 H(8)       34.7646    6.7922   14.9645 H         1 UNK         0.0000 
   9740 H(9)       36.4419    7.1582   14.6168 H         1 UNK         0.0000 
   9741 O(1)       38.1183   15.8804   19.4793 O.3       1 UNK         0.0000 
   9742 O(2)       36.1205    9.7116   19.3635 O.2       1 UNK         0.0000 
   9743 N(1)       38.3016   10.3160   19.5512 N.am      1 UNK         0.0000 
   9744 C(1)       38.2022   11.7244   19.5000 C.ar      1 UNK         0.0000 
   9745 C(2)       37.1200   12.4126   18.9517 C.ar      1 UNK         0.0000 
   9746 C(3)       37.1130   13.8044   18.9482 C.ar      1 UNK         0.0000 
   9747 C(4)       38.1830   14.5191   19.4805 C.ar      1 UNK         0.0000 
   9748 C(5)       39.2786   13.8311   20.0007 C.ar      1 UNK         0.0000 
   9749 C(6)       39.2839   12.4436   20.0094 C.ar      1 UNK         0.0000 
   9750 C(7)       37.3109    9.4107   19.5044 C.2       1 UNK         0.0000 
   9751 C(8)       37.7517    7.9766   19.6254 C.3       1 UNK         0.0000 
   9752 H(1)       36.2795   11.8701   18.5370 H         1 UNK         0.0000 
   9753 H(2)       36.2622   14.3209   18.5211 H         1 UNK         0.0000 
   9754 H(3)       40.1218   14.3804   20.4010 H         1 UNK         0.0000 
   9755 H(4)       40.1346   11.9101   20.4154 H         1 UNK         0.0000 
   9756 H(5)       38.9917   16.2630   19.6273 H         1 UNK         0.0000 
   9757 H(6)       39.2276    9.9525   19.7204 H         1 UNK         0.0000 
   9758 H(7)       37.6735    7.5134   18.6762 H         1 UNK         0.0000 
   9759 H(8)       38.7485    7.8784   19.9694 H         1 UNK         0.0000 
   9760 H(9)       37.0712    7.4589   20.2502 H         1 UNK         0.0000 
   9761 O(1)       33.7844    9.4136   20.5721 O.3       1 UNK         0.0000 
   9762 O(2)       31.7866    8.1736   26.6161 O.2       1 UNK         0.0000 
   9763 N(1)       33.9677    8.1229   25.9852 N.am      1 UNK         0.0000 
   9764 C(1)       33.8683    8.4818   24.6223 C.ar      1 UNK         0.0000 
   9765 C(2)       32.7861    9.1677   24.0711 C.ar      1 UNK         0.0000 
   9766 C(3)       32.7791    9.4765   22.7140 C.ar      1 UNK         0.0000 
   9767 C(4)       33.8491    9.1138   21.9000 C.ar      1 UNK         0.0000 
   9768 C(5)       34.9447    8.4554   22.4571 C.ar      1 UNK         0.0000 
   9769 C(6)       34.9500    8.1426   23.8089 C.ar      1 UNK         0.0000 
   9770 C(7)       32.9770    7.9701   26.8787 C.2       1 UNK         0.0000 
   9771 C(8)       33.4178    7.5375   28.2514 C.3       1 UNK         0.0000 
   9772 H(1)       31.9456    9.4534   24.6914 H         1 UNK         0.0000 
   9773 H(2)       31.9283   10.0064   22.3037 H         1 UNK         0.0000 
   9774 H(3)       35.7879    8.1853   21.8334 H         1 UNK         0.0000 
   9775 H(4)       35.8007    7.6295   24.2404 H         1 UNK         0.0000 
   9776 H(5)       34.6579    9.3531   20.1663 H         1 UNK         0.0000 
   9777 H(6)       34.8937    7.8782   26.3027 H         1 UNK         0.0000 
   9778 H(7)       33.3396    8.3619   28.9114 H         1 UNK         0.0000 
   9779 H(8)       34.4146    7.1803   28.2717 H         1 UNK         0.0000 
   9780 H(9)       32.7373    6.8143   28.6194 H         1 UNK         0.0000 
   9781 O(1)       32.6517   12.7745   23.7569 O.3       1 UNK         0.0000 
   9782 O(2)       34.6495   18.9433   23.8727 O.2       1 UNK         0.0000 
   9783 N(1)       32.4684   18.3389   23.6850 N.am      1 UNK         0.0000 
   9784 C(1)       32.5678   16.9304   23.7362 C.ar      1 UNK         0.0000 
   9785 C(2)       33.6500   16.2422   24.2845 C.ar      1 UNK         0.0000 
   9786 C(3)       33.6570   14.8504   24.2881 C.ar      1 UNK         0.0000 
   9787 C(4)       32.5870   14.1358   23.7557 C.ar      1 UNK         0.0000 
   9788 C(5)       31.4914   14.8237   23.2355 C.ar      1 UNK         0.0000 
   9789 C(6)       31.4861   16.2112   23.2268 C.ar      1 UNK         0.0000 
   9790 C(7)       33.4591   19.2442   23.7318 C.2       1 UNK         0.0000 
   9791 C(8)       33.0183   20.6783   23.6108 C.3       1 UNK         0.0000 
   9792 H(1)       34.4905   16.7847   24.6992 H         1 UNK         0.0000 
   9793 H(2)       34.5078   14.3339   24.7151 H         1 UNK         0.0000 
   9794 H(3)       30.6482   14.2744   22.8352 H         1 UNK         0.0000 
   9795 H(4)       30.6354   16.7448   22.8209 H         1 UNK         0.0000 
   9796 H(5)       31.7783   12.3919   23.6089 H         1 UNK         0.0000 
   9797 H(6)       31.5424   18.7023   23.5158 H         1 UNK         0.0000 
   9798 H(7)       33.0965   21.1414   24.5600 H         1 UNK         0.0000 
   9799 H(8)       32.0215   20.7764   23.2668 H         1 UNK         0.0000 
   9800 H(9)       33.6988   21.1960   22.9860 H         1 UNK         0.0000 
   9801 O(1)       36.9856    7.7793    8.3393 O.3       1 UNK         0.0000 
   9802 O(2)       38.9834    9.0193    2.2953 O.2       1 UNK         0.0000 
   9803 N(1)       36.8023    9.0700    2.9262 N.am      1 UNK         0.0000 
   9804 C(1)       36.9017    8.7111    4.2891 C.ar      1 UNK         0.0000 
   9805 C(2)       37.9839    8.0252    4.8403 C.ar      1 UNK         0.0000 
   9806 C(3)       37.9909    7.7164    6.1975 C.ar      1 UNK         0.0000 
   9807 C(4)       36.9209    8.0791    7.0114 C.ar      1 UNK         0.0000 
   9808 C(5)       35.8253    8.7375    6.4543 C.ar      1 UNK         0.0000 
   9809 C(6)       35.8200    9.0503    5.1025 C.ar      1 UNK         0.0000 
   9810 C(7)       37.7930    9.2228    2.0327 C.2       1 UNK         0.0000 
   9811 C(8)       37.3522    9.6554    0.6600 C.3       1 UNK         0.0000 
   9812 H(1)       38.8244    7.7395    4.2200 H         1 UNK         0.0000 
   9813 H(2)       38.8417    7.1865    6.6077 H         1 UNK         0.0000 
   9814 H(3)       34.9821    9.0076    7.0780 H         1 UNK         0.0000 
   9815 H(4)       34.9693    9.5634    4.6710 H         1 UNK         0.0000 
   9816 H(5)       36.1121    7.8398    8.7451 H         1 UNK         0.0000 
   9817 H(6)       35.8763    9.3147    2.6087 H         1 UNK         0.0000 
   9818 H(7)       37.4304    8.8310    0.0000 H         1 UNK         0.0000 
   9819 H(8)       36.3554   10.0126    0.6397 H         1 UNK         0.0000 
   9820 H(9)       38.0327   10.3786    0.2920 H         1 UNK         0.0000 
   9821 O(1)       39.7091   19.1008    5.1545 O.3       1 UNK         0.0000 
   9822 O(2)       37.7113   12.9320    5.0387 O.2       1 UNK         0.0000 
   9823 N(1)       39.8924   13.5364    5.2264 N.am      1 UNK         0.0000 
   9824 C(1)       39.7930   14.9448    5.1752 C.ar      1 UNK         0.0000 
   9825 C(2)       38.7108   15.6330    4.6269 C.ar      1 UNK         0.0000 
   9826 C(3)       38.7038   17.0248    4.6234 C.ar      1 UNK         0.0000 
   9827 C(4)       39.7738   17.7395    5.1557 C.ar      1 UNK         0.0000 
   9828 C(5)       40.8694   17.0515    5.6759 C.ar      1 UNK         0.0000 
   9829 C(6)       40.8747   15.6640    5.6846 C.ar      1 UNK         0.0000 
   9830 C(7)       38.9016   12.6311    5.1796 C.2       1 UNK         0.0000 
   9831 C(8)       39.3425   11.1969    5.3006 C.3       1 UNK         0.0000 
   9832 H(1)       37.8703   15.0905    4.2122 H         1 UNK         0.0000 
   9833 H(2)       37.8530   17.5413    4.1963 H         1 UNK         0.0000 
   9834 H(3)       41.7126   17.6008    6.0762 H         1 UNK         0.0000 
   9835 H(4)       41.7253   15.1305    6.0906 H         1 UNK         0.0000 
   9836 H(5)       40.5825   19.4834    5.3025 H         1 UNK         0.0000 
   9837 H(6)       40.8184   13.1729    5.3956 H         1 UNK         0.0000 
   9838 H(7)       39.2642   10.7338    4.3514 H         1 UNK         0.0000 
   9839 H(8)       40.3393   11.0988    5.6446 H         1 UNK         0.0000 
   9840 H(9)       38.6620   10.6793    5.9254 H         1 UNK         0.0000 
   9841 O(1)       36.9660   27.3164    6.2473 O.3       1 UNK         0.0000 
   9842 O(2)       34.9682   26.0763   12.2913 O.2       1 UNK         0.0000 
   9843 N(1)       37.1493   26.0256   11.6604 N.am      1 UNK         0.0000 
   9844 C(1)       37.0499   26.3846   10.2975 C.ar      1 UNK         0.0000 
   9845 C(2)       35.9677   27.0704    9.7463 C.ar      1 UNK         0.0000 
   9846 C(3)       35.9607   27.3792    8.3892 C.ar      1 UNK         0.0000 
   9847 C(4)       37.0307   27.0165    7.5752 C.ar      1 UNK         0.0000 
   9848 C(5)       38.1263   26.3582    8.1323 C.ar      1 UNK         0.0000 
   9849 C(6)       38.1316   26.0453    9.4841 C.ar      1 UNK         0.0000 
   9850 C(7)       36.1585   25.8728   12.5539 C.2       1 UNK         0.0000 
   9851 C(8)       36.5994   25.4402   13.9266 C.3       1 UNK         0.0000 
   9852 H(1)       35.1272   27.3561   10.3666 H         1 UNK         0.0000 
   9853 H(2)       35.1099   27.9091    7.9789 H         1 UNK         0.0000 
   9854 H(3)       38.9695   26.0881    7.5086 H         1 UNK         0.0000 
   9855 H(4)       38.9822   25.5322    9.9156 H         1 UNK         0.0000 
   9856 H(5)       37.8394   27.2558    5.8415 H         1 UNK         0.0000 
   9857 H(6)       38.0753   25.7809   11.9779 H         1 UNK         0.0000 
   9858 H(7)       36.5211   26.2646   14.5866 H         1 UNK         0.0000 
   9859 H(8)       37.5962   25.0830   13.9469 H         1 UNK         0.0000 
   9860 H(9)       35.9189   24.7171   14.2946 H         1 UNK         0.0000 
   9861 O(1)       41.3195   15.9949    9.4321 O.3       1 UNK         0.0000 
   9862 O(2)       43.3173   22.1637    9.5479 O.2       1 UNK         0.0000 
   9863 N(1)       41.1361   21.5592    9.3602 N.am      1 UNK         0.0000 
   9864 C(1)       41.2356   20.1508    9.4114 C.ar      1 UNK         0.0000 
   9865 C(2)       42.3178   19.4626    9.9597 C.ar      1 UNK         0.0000 
   9866 C(3)       42.3248   18.0708    9.9633 C.ar      1 UNK         0.0000 
   9867 C(4)       41.2548   17.3562    9.4309 C.ar      1 UNK         0.0000 
   9868 C(5)       40.1592   18.0441    8.9107 C.ar      1 UNK         0.0000 
   9869 C(6)       40.1538   19.4316    8.9020 C.ar      1 UNK         0.0000 
   9870 C(7)       42.1269   22.4646    9.4070 C.2       1 UNK         0.0000 
   9871 C(8)       41.6861   23.8987    9.2860 C.3       1 UNK         0.0000 
   9872 H(1)       43.1583   20.0051   10.3744 H         1 UNK         0.0000 
   9873 H(2)       43.1756   17.5543   10.3903 H         1 UNK         0.0000 
   9874 H(3)       39.3160   17.4948    8.5104 H         1 UNK         0.0000 
   9875 H(4)       39.3032   19.9652    8.4961 H         1 UNK         0.0000 
   9876 H(5)       40.4460   15.6123    9.2841 H         1 UNK         0.0000 
   9877 H(6)       40.2102   21.9227    9.1910 H         1 UNK         0.0000 
   9878 H(7)       41.7643   24.3618   10.2352 H         1 UNK         0.0000 
   9879 H(8)       40.6893   23.9968    8.9420 H         1 UNK         0.0000 
   9880 H(9)       42.3665   24.4164    8.6612 H         1 UNK         0.0000 
   9881 O(1)       31.4994   28.1926   15.5017 O.3       1 UNK         0.0000 
   9882 O(2)       33.4972   29.4326    9.4577 O.2       1 UNK         0.0000 
   9883 N(1)       31.3160   29.4833   10.0886 N.am      1 UNK         0.0000 
   9884 C(1)       31.4155   29.1244   11.4515 C.ar      1 UNK         0.0000 
   9885 C(2)       32.4976   28.4385   12.0027 C.ar      1 UNK         0.0000 
   9886 C(3)       32.5047   28.1297   13.3599 C.ar      1 UNK         0.0000 
   9887 C(4)       31.4347   28.4924   14.1738 C.ar      1 UNK         0.0000 
   9888 C(5)       30.3390   29.1508   13.6167 C.ar      1 UNK         0.0000 
   9889 C(6)       30.3337   29.4636   12.2649 C.ar      1 UNK         0.0000 
   9890 C(7)       32.3068   29.6361    9.1951 C.2       1 UNK         0.0000 
   9891 C(8)       31.8660   30.0687    7.8224 C.3       1 UNK         0.0000 
   9892 H(1)       33.3382   28.1528   11.3824 H         1 UNK         0.0000 
   9893 H(2)       33.3555   27.5998   13.7701 H         1 UNK         0.0000 
   9894 H(3)       29.4959   29.4209   14.2404 H         1 UNK         0.0000 
   9895 H(4)       29.4831   29.9767   11.8334 H         1 UNK         0.0000 
   9896 H(5)       30.6259   28.2531   15.9075 H         1 UNK         0.0000 
   9897 H(6)       30.3901   29.7280    9.7711 H         1 UNK         0.0000 
   9898 H(7)       31.9442   29.2443    7.1624 H         1 UNK         0.0000 
   9899 H(8)       30.8692   30.4259    7.8021 H         1 UNK         0.0000 
   9900 H(9)       32.5464   30.7919    7.4544 H         1 UNK         0.0000 
   9901 O(1)       32.6321   24.8317   12.3169 O.3       1 UNK         0.0000 
   9902 O(2)       30.6343   18.6629   12.2011 O.2       1 UNK         0.0000 
   9903 N(1)       32.8154   19.2673   12.3888 N.am      1 UNK         0.0000 
   9904 C(1)       32.7160   20.6758   12.3376 C.ar      1 UNK         0.0000 
   9905 C(2)       31.6338   21.3640   11.7893 C.ar      1 UNK         0.0000 
   9906 C(3)       31.6268   22.7558   11.7858 C.ar      1 UNK         0.0000 
   9907 C(4)       32.6968   23.4704   12.3181 C.ar      1 UNK         0.0000 
   9908 C(5)       33.7924   22.7825   12.8383 C.ar      1 UNK         0.0000 
   9909 C(6)       33.7977   21.3950   12.8470 C.ar      1 UNK         0.0000 
   9910 C(7)       31.8246   18.3620   12.3420 C.2       1 UNK         0.0000 
   9911 C(8)       32.2655   16.9279   12.4630 C.3       1 UNK         0.0000 
   9912 H(1)       30.7933   20.8215   11.3746 H         1 UNK         0.0000 
   9913 H(2)       30.7760   23.2723   11.3587 H         1 UNK         0.0000 
   9914 H(3)       34.6356   23.3317   13.2386 H         1 UNK         0.0000 
   9915 H(4)       34.6483   20.8614   13.2530 H         1 UNK         0.0000 
   9916 H(5)       33.5055   25.2143   12.4649 H         1 UNK         0.0000 
   9917 H(6)       33.7414   18.9039   12.5580 H         1 UNK         0.0000 
   9918 H(7)       32.1872   16.4648   11.5138 H         1 UNK         0.0000 
   9919 H(8)       33.2623   16.8298   12.8070 H         1 UNK         0.0000 
   9920 H(9)       31.5850   16.4102   13.0878 H         1 UNK         0.0000 
   9921 O(1)       36.9660   33.0473   13.4097 O.3       1 UNK         0.0000 
   9922 O(2)       34.9682   31.8072   19.4537 O.2       1 UNK         0.0000 
   9923 N(1)       37.1493   31.7566   18.8228 N.am      1 UNK         0.0000 
   9924 C(1)       37.0499   32.1155   17.4599 C.ar      1 UNK         0.0000 
   9925 C(2)       35.9677   32.8014   16.9087 C.ar      1 UNK         0.0000 
   9926 C(3)       35.9607   33.1102   15.5516 C.ar      1 UNK         0.0000 
   9927 C(4)       37.0307   32.7475   14.7376 C.ar      1 UNK         0.0000 
   9928 C(5)       38.1263   32.0891   15.2947 C.ar      1 UNK         0.0000 
   9929 C(6)       38.1316   31.7763   16.6465 C.ar      1 UNK         0.0000 
   9930 C(7)       36.1585   31.6038   19.7163 C.2       1 UNK         0.0000 
   9931 C(8)       36.5994   31.1711   21.0890 C.3       1 UNK         0.0000 
   9932 H(1)       35.1272   33.0871   17.5290 H         1 UNK         0.0000 
   9933 H(2)       35.1099   33.6401   15.1413 H         1 UNK         0.0000 
   9934 H(3)       38.9695   31.8190   14.6710 H         1 UNK         0.0000 
   9935 H(4)       38.9822   31.2632   17.0780 H         1 UNK         0.0000 
   9936 H(5)       37.8394   32.9868   13.0039 H         1 UNK         0.0000 
   9937 H(6)       38.0753   31.5119   19.1403 H         1 UNK         0.0000 
   9938 H(7)       36.5211   31.9956   21.7490 H         1 UNK         0.0000 
   9939 H(8)       37.5962   30.8140   21.1093 H         1 UNK         0.0000 
   9940 H(9)       35.9189   30.4480   21.4570 H         1 UNK         0.0000 
   9941 O(1)       41.3195   21.7258   16.5945 O.3       1 UNK         0.0000 
   9942 O(2)       43.3173   27.8946   16.7103 O.2       1 UNK         0.0000 
   9943 N(1)       41.1361   27.2902   16.5226 N.am      1 UNK         0.0000 
   9944 C(1)       41.2356   25.8818   16.5738 C.ar      1 UNK         0.0000 
   9945 C(2)       42.3178   25.1936   17.1221 C.ar      1 UNK         0.0000 
   9946 C(3)       42.3248   23.8017   17.1257 C.ar      1 UNK         0.0000 
   9947 C(4)       41.2548   23.0871   16.5933 C.ar      1 UNK         0.0000 
   9948 C(5)       40.1592   23.7751   16.0731 C.ar      1 UNK         0.0000 
   9949 C(6)       40.1538   25.1626   16.0644 C.ar      1 UNK         0.0000 
   9950 C(7)       42.1269   28.1955   16.5694 C.2       1 UNK         0.0000 
   9951 C(8)       41.6861   29.6296   16.4484 C.3       1 UNK         0.0000 
   9952 H(1)       43.1583   25.7361   17.5368 H         1 UNK         0.0000 
   9953 H(2)       43.1756   23.2853   17.5527 H         1 UNK         0.0000 
   9954 H(3)       39.3160   23.2258   15.6728 H         1 UNK         0.0000 
   9955 H(4)       39.3032   25.6961   15.6585 H         1 UNK         0.0000 
   9956 H(5)       40.4460   21.3432   16.4465 H         1 UNK         0.0000 
   9957 H(6)       40.2102   27.6537   16.3534 H         1 UNK         0.0000 
   9958 H(7)       41.7643   30.0928   17.3976 H         1 UNK         0.0000 
   9959 H(8)       40.6893   29.7278   16.1044 H         1 UNK         0.0000 
   9960 H(9)       42.3665   30.1473   15.8236 H         1 UNK         0.0000 
   9961 O(1)       36.9856   19.2412   22.6641 O.3       1 UNK         0.0000 
   9962 O(2)       38.9834   20.4813   16.6201 O.2       1 UNK         0.0000 
   9963 N(1)       36.8023   20.5319   17.2510 N.am      1 UNK         0.0000 
   9964 C(1)       36.9017   20.1730   18.6139 C.ar      1 UNK         0.0000 
   9965 C(2)       37.9839   19.4871   19.1651 C.ar      1 UNK         0.0000 
   9966 C(3)       37.9909   19.1784   20.5223 C.ar      1 UNK         0.0000 
   9967 C(4)       36.9209   19.5410   21.3362 C.ar      1 UNK         0.0000 
   9968 C(5)       35.8253   20.1994   20.7791 C.ar      1 UNK         0.0000 
   9969 C(6)       35.8200   20.5123   19.4273 C.ar      1 UNK         0.0000 
   9970 C(7)       37.7930   20.6847   16.3575 C.2       1 UNK         0.0000 
   9971 C(8)       37.3522   21.1174   14.9848 C.3       1 UNK         0.0000 
   9972 H(1)       38.8244   19.2015   18.5448 H         1 UNK         0.0000 
   9973 H(2)       38.8417   18.6484   20.9325 H         1 UNK         0.0000 
   9974 H(3)       34.9821   20.4695   21.4028 H         1 UNK         0.0000 
   9975 H(4)       34.9693   21.0253   18.9958 H         1 UNK         0.0000 
   9976 H(5)       36.1121   19.3017   23.0699 H         1 UNK         0.0000 
   9977 H(6)       35.8763   20.7767   16.9335 H         1 UNK         0.0000 
   9978 H(7)       37.4304   20.2929   14.3248 H         1 UNK         0.0000 
   9979 H(8)       36.3554   21.4745   14.9645 H         1 UNK         0.0000 
   9980 H(9)       38.0327   21.8405   14.6168 H         1 UNK         0.0000 
   9981 O(1)       39.7091   30.5627   19.4793 O.3       1 UNK         0.0000 
   9982 O(2)       37.7113   24.3939   19.3635 O.2       1 UNK         0.0000 
   9983 N(1)       39.8924   24.9983   19.5512 N.am      1 UNK         0.0000 
   9984 C(1)       39.7930   26.4068   19.5000 C.ar      1 UNK         0.0000 
   9985 C(2)       38.7108   27.0950   18.9517 C.ar      1 UNK         0.0000 
   9986 C(3)       38.7038   28.4868   18.9482 C.ar      1 UNK         0.0000 
   9987 C(4)       39.7738   29.2014   19.4805 C.ar      1 UNK         0.0000 
   9988 C(5)       40.8694   28.5135   20.0007 C.ar      1 UNK         0.0000 
   9989 C(6)       40.8747   27.1259   20.0094 C.ar      1 UNK         0.0000 
   9990 C(7)       38.9016   24.0930   19.5044 C.2       1 UNK         0.0000 
   9991 C(8)       39.3425   22.6589   19.6254 C.3       1 UNK         0.0000 
   9992 H(1)       37.8703   26.5524   18.5370 H         1 UNK         0.0000 
   9993 H(2)       37.8530   29.0033   18.5211 H         1 UNK         0.0000 
   9994 H(3)       41.7126   29.0627   20.4010 H         1 UNK         0.0000 
   9995 H(4)       41.7253   26.5924   20.4154 H         1 UNK         0.0000 
   9996 H(5)       40.5825   30.9453   19.6273 H         1 UNK         0.0000 
   9997 H(6)       40.8184   24.6348   19.7204 H         1 UNK         0.0000 
   9998 H(7)       39.2642   22.1958   18.6762 H         1 UNK         0.0000 
   9999 H(8)       40.3393   22.5607   19.9694 H         1 UNK         0.0000 
  10000 H(9)       38.6620   22.1412   20.2502 H         1 UNK         0.0000 
  10001 O(1)       35.3752   24.0960   20.5721 O.3       1 UNK         0.0000 
  10002 O(2)       33.3774   22.8559   26.6161 O.2       1 UNK         0.0000 
  10003 N(1)       35.5585   22.8052   25.9852 N.am      1 UNK         0.0000 
  10004 C(1)       35.4591   23.1642   24.6223 C.ar      1 UNK         0.0000 
  10005 C(2)       34.3769   23.8500   24.0711 C.ar      1 UNK         0.0000 
  10006 C(3)       34.3699   24.1588   22.7140 C.ar      1 UNK         0.0000 
  10007 C(4)       35.4399   23.7962   21.9000 C.ar      1 UNK         0.0000 
  10008 C(5)       36.5355   23.1378   22.4571 C.ar      1 UNK         0.0000 
  10009 C(6)       36.5408   22.8249   23.8089 C.ar      1 UNK         0.0000 
  10010 C(7)       34.5678   22.6524   26.8787 C.2       1 UNK         0.0000 
  10011 C(8)       35.0086   22.2198   28.2514 C.3       1 UNK         0.0000 
  10012 H(1)       33.5364   24.1357   24.6914 H         1 UNK         0.0000 
  10013 H(2)       33.5191   24.6887   22.3037 H         1 UNK         0.0000 
  10014 H(3)       37.3787   22.8677   21.8334 H         1 UNK         0.0000 
  10015 H(4)       37.3914   22.3118   24.2404 H         1 UNK         0.0000 
  10016 H(5)       36.2486   24.0354   20.1663 H         1 UNK         0.0000 
  10017 H(6)       36.4845   22.5605   26.3027 H         1 UNK         0.0000 
  10018 H(7)       34.9303   23.0442   28.9114 H         1 UNK         0.0000 
  10019 H(8)       36.0054   21.8626   28.2717 H         1 UNK         0.0000 
  10020 H(9)       34.3281   21.4967   28.6194 H         1 UNK         0.0000 
  10021 O(1)       34.2425   27.4568   23.7569 O.3       1 UNK         0.0000 
  10022 O(2)       36.2403   33.6256   23.8727 O.2       1 UNK         0.0000 
  10023 N(1)       34.0591   33.0212   23.6850 N.am      1 UNK         0.0000 
  10024 C(1)       34.1586   31.6127   23.7362 C.ar      1 UNK         0.0000 
  10025 C(2)       35.2408   30.9245   24.2845 C.ar      1 UNK         0.0000 
  10026 C(3)       35.2478   29.5327   24.2881 C.ar      1 UNK         0.0000 
  10027 C(4)       34.1778   28.8181   23.7557 C.ar      1 UNK         0.0000 
  10028 C(5)       33.0822   29.5060   23.2355 C.ar      1 UNK         0.0000 
  10029 C(6)       33.0768   30.8936   23.2268 C.ar      1 UNK         0.0000 
  10030 C(7)       35.0499   33.9265   23.7318 C.2       1 UNK         0.0000 
  10031 C(8)       34.6091   35.3606   23.6108 C.3       1 UNK         0.0000 
  10032 H(1)       36.0813   31.4671   24.6992 H         1 UNK         0.0000 
  10033 H(2)       36.0986   29.0162   24.7151 H         1 UNK         0.0000 
  10034 H(3)       32.2390   28.9568   22.8352 H         1 UNK         0.0000 
  10035 H(4)       32.2262   31.4271   22.8209 H         1 UNK         0.0000 
  10036 H(5)       33.3690   27.0742   23.6089 H         1 UNK         0.0000 
  10037 H(6)       33.1332   33.3846   23.5158 H         1 UNK         0.0000 
  10038 H(7)       34.6873   35.8237   24.5600 H         1 UNK         0.0000 
  10039 H(8)       33.6123   35.4588   23.2668 H         1 UNK         0.0000 
  10040 H(9)       35.2895   35.8783   22.9860 H         1 UNK         0.0000 
  10041 O(1)       38.5764   22.4616    8.3393 O.3       1 UNK         0.0000 
  10042 O(2)       40.5742   23.7017    2.2953 O.2       1 UNK         0.0000 
  10043 N(1)       38.3930   23.7523    2.9262 N.am      1 UNK         0.0000 
  10044 C(1)       38.4925   23.3934    4.2891 C.ar      1 UNK         0.0000 
  10045 C(2)       39.5746   22.7075    4.8403 C.ar      1 UNK         0.0000 
  10046 C(3)       39.5817   22.3988    6.1975 C.ar      1 UNK         0.0000 
  10047 C(4)       38.5117   22.7614    7.0114 C.ar      1 UNK         0.0000 
  10048 C(5)       37.4160   23.4198    6.4543 C.ar      1 UNK         0.0000 
  10049 C(6)       37.4107   23.7327    5.1025 C.ar      1 UNK         0.0000 
  10050 C(7)       39.3838   23.9051    2.0327 C.2       1 UNK         0.0000 
  10051 C(8)       38.9430   24.3378    0.6600 C.3       1 UNK         0.0000 
  10052 H(1)       40.4152   22.4219    4.2200 H         1 UNK         0.0000 
  10053 H(2)       40.4325   21.8688    6.6077 H         1 UNK         0.0000 
  10054 H(3)       36.5729   23.6899    7.0780 H         1 UNK         0.0000 
  10055 H(4)       36.5601   24.2457    4.6710 H         1 UNK         0.0000 
  10056 H(5)       37.7029   22.5221    8.7451 H         1 UNK         0.0000 
  10057 H(6)       37.4671   23.9971    2.6087 H         1 UNK         0.0000 
  10058 H(7)       39.0212   23.5133    0.0000 H         1 UNK         0.0000 
  10059 H(8)       37.9462   24.6949    0.6397 H         1 UNK         0.0000 
  10060 H(9)       39.6234   25.0609    0.2920 H         1 UNK         0.0000 
  10061 O(1)       41.2999   33.7831    5.1545 O.3       1 UNK         0.0000 
  10062 O(2)       39.3021   27.6143    5.0387 O.2       1 UNK         0.0000 
  10063 N(1)       41.4832   28.2187    5.2264 N.am      1 UNK         0.0000 
  10064 C(1)       41.3837   29.6272    5.1752 C.ar      1 UNK         0.0000 
  10065 C(2)       40.3016   30.3154    4.6269 C.ar      1 UNK         0.0000 
  10066 C(3)       40.2946   31.7072    4.6234 C.ar      1 UNK         0.0000 
  10067 C(4)       41.3646   32.4218    5.1557 C.ar      1 UNK         0.0000 
  10068 C(5)       42.4602   31.7339    5.6759 C.ar      1 UNK         0.0000 
  10069 C(6)       42.4655   30.3463    5.6846 C.ar      1 UNK         0.0000 
  10070 C(7)       40.4924   27.3134    5.1796 C.2       1 UNK         0.0000 
  10071 C(8)       40.9333   25.8793    5.3006 C.3       1 UNK         0.0000 
  10072 H(1)       39.4611   29.7728    4.2122 H         1 UNK         0.0000 
  10073 H(2)       39.4438   32.2236    4.1963 H         1 UNK         0.0000 
  10074 H(3)       43.3034   32.2831    6.0762 H         1 UNK         0.0000 
  10075 H(4)       43.3161   29.8128    6.0906 H         1 UNK         0.0000 
  10076 H(5)       42.1733   34.1657    5.3025 H         1 UNK         0.0000 
  10077 H(6)       42.4092   27.8552    5.3956 H         1 UNK         0.0000 
  10078 H(7)       40.8550   25.4162    4.3514 H         1 UNK         0.0000 
  10079 H(8)       41.9301   25.7811    5.6446 H         1 UNK         0.0000 
  10080 H(9)       40.2528   25.3616    5.9254 H         1 UNK         0.0000 
  10081 O(1)       38.5568   41.9987    6.2473 O.3       1 UNK         0.0000 
  10082 O(2)       36.5590   40.7586   12.2913 O.2       1 UNK         0.0000 
  10083 N(1)       38.7401   40.7080   11.6604 N.am      1 UNK         0.0000 
  10084 C(1)       38.6406   41.0669   10.2975 C.ar      1 UNK         0.0000 
  10085 C(2)       37.5585   41.7528    9.7463 C.ar      1 UNK         0.0000 
  10086 C(3)       37.5515   42.0615    8.3892 C.ar      1 UNK         0.0000 
  10087 C(4)       38.6215   41.6989    7.5752 C.ar      1 UNK         0.0000 
  10088 C(5)       39.7171   41.0405    8.1323 C.ar      1 UNK         0.0000 
  10089 C(6)       39.7224   40.7276    9.4841 C.ar      1 UNK         0.0000 
  10090 C(7)       37.7493   40.5551   12.5539 C.2       1 UNK         0.0000 
  10091 C(8)       38.1902   40.1225   13.9266 C.3       1 UNK         0.0000 
  10092 H(1)       36.7180   42.0384   10.3666 H         1 UNK         0.0000 
  10093 H(2)       36.7006   42.5914    7.9789 H         1 UNK         0.0000 
  10094 H(3)       40.5603   40.7704    7.5086 H         1 UNK         0.0000 
  10095 H(4)       40.5730   40.2146    9.9156 H         1 UNK         0.0000 
  10096 H(5)       39.4302   41.9382    5.8415 H         1 UNK         0.0000 
  10097 H(6)       39.6661   40.4632   11.9779 H         1 UNK         0.0000 
  10098 H(7)       38.1119   40.9470   14.5866 H         1 UNK         0.0000 
  10099 H(8)       39.1870   39.7654   13.9469 H         1 UNK         0.0000 
  10100 H(9)       37.5097   39.3994   14.2946 H         1 UNK         0.0000 
  10101 O(1)       42.9103   30.6772    9.4321 O.3       1 UNK         0.0000 
  10102 O(2)       44.9081   36.8460    9.5479 O.2       1 UNK         0.0000 
  10103 N(1)       42.7269   36.2416    9.3602 N.am      1 UNK         0.0000 
  10104 C(1)       42.8264   34.8331    9.4114 C.ar      1 UNK         0.0000 
  10105 C(2)       43.9085   34.1449    9.9597 C.ar      1 UNK         0.0000 
  10106 C(3)       43.9156   32.7531    9.9633 C.ar      1 UNK         0.0000 
  10107 C(4)       42.8455   32.0385    9.4309 C.ar      1 UNK         0.0000 
  10108 C(5)       41.7499   32.7264    8.9107 C.ar      1 UNK         0.0000 
  10109 C(6)       41.7446   34.1140    8.9020 C.ar      1 UNK         0.0000 
  10110 C(7)       43.7177   37.1469    9.4070 C.2       1 UNK         0.0000 
  10111 C(8)       43.2769   38.5810    9.2860 C.3       1 UNK         0.0000 
  10112 H(1)       44.7491   34.6875   10.3744 H         1 UNK         0.0000 
  10113 H(2)       44.7664   32.2366   10.3903 H         1 UNK         0.0000 
  10114 H(3)       40.9068   32.1772    8.5104 H         1 UNK         0.0000 
  10115 H(4)       40.8940   34.6475    8.4961 H         1 UNK         0.0000 
  10116 H(5)       42.0368   30.2946    9.2841 H         1 UNK         0.0000 
  10117 H(6)       41.8010   36.6050    9.1910 H         1 UNK         0.0000 
  10118 H(7)       43.3551   39.0441   10.2352 H         1 UNK         0.0000 
  10119 H(8)       42.2801   38.6792    8.9420 H         1 UNK         0.0000 
  10120 H(9)       43.9573   39.0987    8.6612 H         1 UNK         0.0000 
  10121 O(1)       33.0902   42.8749   15.5017 O.3       1 UNK         0.0000 
  10122 O(2)       35.0880   44.1150    9.4577 O.2       1 UNK         0.0000 
  10123 N(1)       32.9068   44.1656   10.0886 N.am      1 UNK         0.0000 
  10124 C(1)       33.0063   43.8067   11.4515 C.ar      1 UNK         0.0000 
  10125 C(2)       34.0884   43.1208   12.0027 C.ar      1 UNK         0.0000 
  10126 C(3)       34.0955   42.8120   13.3599 C.ar      1 UNK         0.0000 
  10127 C(4)       33.0254   43.1747   14.1738 C.ar      1 UNK         0.0000 
  10128 C(5)       31.9298   43.8331   13.6167 C.ar      1 UNK         0.0000 
  10129 C(6)       31.9245   44.1460   12.2649 C.ar      1 UNK         0.0000 
  10130 C(7)       33.8976   44.3184    9.1951 C.2       1 UNK         0.0000 
  10131 C(8)       33.4567   44.7511    7.8224 C.3       1 UNK         0.0000 
  10132 H(1)       34.9290   42.8352   11.3824 H         1 UNK         0.0000 
  10133 H(2)       34.9463   42.2821   13.7701 H         1 UNK         0.0000 
  10134 H(3)       31.0867   44.1032   14.2404 H         1 UNK         0.0000 
  10135 H(4)       31.0739   44.6590   11.8334 H         1 UNK         0.0000 
  10136 H(5)       32.2167   42.9354   15.9075 H         1 UNK         0.0000 
  10137 H(6)       31.9809   44.4103    9.7711 H         1 UNK         0.0000 
  10138 H(7)       33.5350   43.9266    7.1624 H         1 UNK         0.0000 
  10139 H(8)       32.4600   45.1082    7.8021 H         1 UNK         0.0000 
  10140 H(9)       34.1372   45.4742    7.4544 H         1 UNK         0.0000 
  10141 O(1)       34.2229   39.5141   12.3169 O.3       1 UNK         0.0000 
  10142 O(2)       32.2251   33.3453   12.2011 O.2       1 UNK         0.0000 
  10143 N(1)       34.4062   33.9497   12.3888 N.am      1 UNK         0.0000 
  10144 C(1)       34.3068   35.3581   12.3376 C.ar      1 UNK         0.0000 
  10145 C(2)       33.2246   36.0463   11.7893 C.ar      1 UNK         0.0000 
  10146 C(3)       33.2176   37.4381   11.7858 C.ar      1 UNK         0.0000 
  10147 C(4)       34.2876   38.1527   12.3181 C.ar      1 UNK         0.0000 
  10148 C(5)       35.3832   37.4648   12.8383 C.ar      1 UNK         0.0000 
  10149 C(6)       35.3885   36.0773   12.8470 C.ar      1 UNK         0.0000 
  10150 C(7)       33.4154   33.0444   12.3420 C.2       1 UNK         0.0000 
  10151 C(8)       33.8563   31.6102   12.4630 C.3       1 UNK         0.0000 
  10152 H(1)       32.3841   35.5038   11.3746 H         1 UNK         0.0000 
  10153 H(2)       32.3668   37.9546   11.3587 H         1 UNK         0.0000 
  10154 H(3)       36.2264   38.0141   13.2386 H         1 UNK         0.0000 
  10155 H(4)       36.2391   35.5438   13.2530 H         1 UNK         0.0000 
  10156 H(5)       35.0963   39.8967   12.4649 H         1 UNK         0.0000 
  10157 H(6)       35.3322   33.5862   12.5580 H         1 UNK         0.0000 
  10158 H(7)       33.7780   31.1471   11.5138 H         1 UNK         0.0000 
  10159 H(8)       34.8531   31.5121   12.8070 H         1 UNK         0.0000 
  10160 H(9)       33.1758   31.0926   13.0878 H         1 UNK         0.0000 
  10161 O(1)       38.5568   47.7297   13.4097 O.3       1 UNK         0.0000 
  10162 O(2)       36.5590   46.4896   19.4537 O.2       1 UNK         0.0000 
  10163 N(1)       38.7401   46.4389   18.8228 N.am      1 UNK         0.0000 
  10164 C(1)       38.6406   46.7979   17.4599 C.ar      1 UNK         0.0000 
  10165 C(2)       37.5585   47.4837   16.9087 C.ar      1 UNK         0.0000 
  10166 C(3)       37.5515   47.7925   15.5516 C.ar      1 UNK         0.0000 
  10167 C(4)       38.6215   47.4298   14.7376 C.ar      1 UNK         0.0000 
  10168 C(5)       39.7171   46.7715   15.2947 C.ar      1 UNK         0.0000 
  10169 C(6)       39.7224   46.4586   16.6465 C.ar      1 UNK         0.0000 
  10170 C(7)       37.7493   46.2861   19.7163 C.2       1 UNK         0.0000 
  10171 C(8)       38.1902   45.8535   21.0890 C.3       1 UNK         0.0000 
  10172 H(1)       36.7180   47.7694   17.5290 H         1 UNK         0.0000 
  10173 H(2)       36.7006   48.3224   15.1413 H         1 UNK         0.0000 
  10174 H(3)       40.5603   46.5014   14.6710 H         1 UNK         0.0000 
  10175 H(4)       40.5730   45.9455   17.0780 H         1 UNK         0.0000 
  10176 H(5)       39.4302   47.6691   13.0039 H         1 UNK         0.0000 
  10177 H(6)       39.6661   46.1942   19.1403 H         1 UNK         0.0000 
  10178 H(7)       38.1119   46.6779   21.7490 H         1 UNK         0.0000 
  10179 H(8)       39.1870   45.4963   21.1093 H         1 UNK         0.0000 
  10180 H(9)       37.5097   45.1304   21.4570 H         1 UNK         0.0000 
  10181 O(1)       42.9103   36.4082   16.5945 O.3       1 UNK         0.0000 
  10182 O(2)       44.9081   42.5769   16.7103 O.2       1 UNK         0.0000 
  10183 N(1)       42.7269   41.9725   16.5226 N.am      1 UNK         0.0000 
  10184 C(1)       42.8264   40.5641   16.5738 C.ar      1 UNK         0.0000 
  10185 C(2)       43.9085   39.8759   17.1221 C.ar      1 UNK         0.0000 
  10186 C(3)       43.9156   38.4841   17.1257 C.ar      1 UNK         0.0000 
  10187 C(4)       42.8455   37.7695   16.5933 C.ar      1 UNK         0.0000 
  10188 C(5)       41.7499   38.4574   16.0731 C.ar      1 UNK         0.0000 
  10189 C(6)       41.7446   39.8449   16.0644 C.ar      1 UNK         0.0000 
  10190 C(7)       43.7177   42.8779   16.5694 C.2       1 UNK         0.0000 
  10191 C(8)       43.2769   44.3120   16.4484 C.3       1 UNK         0.0000 
  10192 H(1)       44.7491   40.4184   17.5368 H         1 UNK         0.0000 
  10193 H(2)       44.7664   37.9676   17.5527 H         1 UNK         0.0000 
  10194 H(3)       40.9068   37.9081   15.6728 H         1 UNK         0.0000 
  10195 H(4)       40.8940   40.3784   15.6585 H         1 UNK         0.0000 
  10196 H(5)       42.0368   36.0256   16.4465 H         1 UNK         0.0000 
  10197 H(6)       41.8010   42.3360   16.3534 H         1 UNK         0.0000 
  10198 H(7)       43.3551   44.7751   17.3976 H         1 UNK         0.0000 
  10199 H(8)       42.2801   44.4101   16.1044 H         1 UNK         0.0000 
  10200 H(9)       43.9573   44.8296   15.8236 H         1 UNK         0.0000 
  10201 O(1)       38.5764   33.9235   22.6641 O.3       1 UNK         0.0000 
  10202 O(2)       40.5742   35.1636   16.6201 O.2       1 UNK         0.0000 
  10203 N(1)       38.3930   35.2142   17.2510 N.am      1 UNK         0.0000 
  10204 C(1)       38.4925   34.8553   18.6139 C.ar      1 UNK         0.0000 
  10205 C(2)       39.5746   34.1694   19.1651 C.ar      1 UNK         0.0000 
  10206 C(3)       39.5817   33.8607   20.5223 C.ar      1 UNK         0.0000 
  10207 C(4)       38.5117   34.2233   21.3362 C.ar      1 UNK         0.0000 
  10208 C(5)       37.4160   34.8817   20.7791 C.ar      1 UNK         0.0000 
  10209 C(6)       37.4107   35.1946   19.4273 C.ar      1 UNK         0.0000 
  10210 C(7)       39.3838   35.3671   16.3575 C.2       1 UNK         0.0000 
  10211 C(8)       38.9430   35.7997   14.9848 C.3       1 UNK         0.0000 
  10212 H(1)       40.4152   33.8838   18.5448 H         1 UNK         0.0000 
  10213 H(2)       40.4325   33.3308   20.9325 H         1 UNK         0.0000 
  10214 H(3)       36.5729   35.1518   21.4028 H         1 UNK         0.0000 
  10215 H(4)       36.5601   35.7077   18.9958 H         1 UNK         0.0000 
  10216 H(5)       37.7029   33.9840   23.0699 H         1 UNK         0.0000 
  10217 H(6)       37.4671   35.4590   16.9335 H         1 UNK         0.0000 
  10218 H(7)       39.0212   34.9753   14.3248 H         1 UNK         0.0000 
  10219 H(8)       37.9462   36.1568   14.9645 H         1 UNK         0.0000 
  10220 H(9)       39.6234   36.5228   14.6168 H         1 UNK         0.0000 
  10221 O(1)       41.2999   45.2450   19.4793 O.3       1 UNK         0.0000 
  10222 O(2)       39.3021   39.0762   19.3635 O.2       1 UNK         0.0000 
  10223 N(1)       41.4832   39.6806   19.5512 N.am      1 UNK         0.0000 
  10224 C(1)       41.3837   41.0891   19.5000 C.ar      1 UNK         0.0000 
  10225 C(2)       40.3016   41.7773   18.9517 C.ar      1 UNK         0.0000 
  10226 C(3)       40.2946   43.1691   18.9482 C.ar      1 UNK         0.0000 
  10227 C(4)       41.3646   43.8837   19.4805 C.ar      1 UNK         0.0000 
  10228 C(5)       42.4602   43.1958   20.0007 C.ar      1 UNK         0.0000 
  10229 C(6)       42.4655   41.8082   20.0094 C.ar      1 UNK         0.0000 
  10230 C(7)       40.4924   38.7753   19.5044 C.2       1 UNK         0.0000 
  10231 C(8)       40.9333   37.3412   19.6254 C.3       1 UNK         0.0000 
  10232 H(1)       39.4611   41.2348   18.5370 H         1 UNK         0.0000 
  10233 H(2)       39.4438   43.6856   18.5211 H         1 UNK         0.0000 
  10234 H(3)       43.3034   43.7450   20.4010 H         1 UNK         0.0000 
  10235 H(4)       43.3161   41.2747   20.4154 H         1 UNK         0.0000 
  10236 H(5)       42.1733   45.6276   19.6273 H         1 UNK         0.0000 
  10237 H(6)       42.4092   39.3172   19.7204 H         1 UNK         0.0000 
  10238 H(7)       40.8550   36.8781   18.6762 H         1 UNK         0.0000 
  10239 H(8)       41.9301   37.2431   19.9694 H         1 UNK         0.0000 
  10240 H(9)       40.2528   36.8235   20.2502 H         1 UNK         0.0000 
  10241 O(1)       36.9660   38.7783   20.5721 O.3       1 UNK         0.0000 
  10242 O(2)       34.9682   37.5382   26.6161 O.2       1 UNK         0.0000 
  10243 N(1)       37.1493   37.4876   25.9852 N.am      1 UNK         0.0000 
  10244 C(1)       37.0499   37.8465   24.6223 C.ar      1 UNK         0.0000 
  10245 C(2)       35.9677   38.5324   24.0711 C.ar      1 UNK         0.0000 
  10246 C(3)       35.9607   38.8411   22.7140 C.ar      1 UNK         0.0000 
  10247 C(4)       37.0307   38.4785   21.9000 C.ar      1 UNK         0.0000 
  10248 C(5)       38.1263   37.8201   22.4571 C.ar      1 UNK         0.0000 
  10249 C(6)       38.1316   37.5072   23.8089 C.ar      1 UNK         0.0000 
  10250 C(7)       36.1585   37.3347   26.8787 C.2       1 UNK         0.0000 
  10251 C(8)       36.5994   36.9021   28.2514 C.3       1 UNK         0.0000 
  10252 H(1)       35.1272   38.8180   24.6914 H         1 UNK         0.0000 
  10253 H(2)       35.1099   39.3710   22.3037 H         1 UNK         0.0000 
  10254 H(3)       38.9695   37.5500   21.8334 H         1 UNK         0.0000 
  10255 H(4)       38.9822   36.9942   24.2404 H         1 UNK         0.0000 
  10256 H(5)       37.8394   38.7178   20.1663 H         1 UNK         0.0000 
  10257 H(6)       38.0753   37.2428   26.3027 H         1 UNK         0.0000 
  10258 H(7)       36.5211   37.7266   28.9114 H         1 UNK         0.0000 
  10259 H(8)       37.5962   36.5450   28.2717 H         1 UNK         0.0000 
  10260 H(9)       35.9189   36.1790   28.6194 H         1 UNK         0.0000 
  10261 O(1)       35.8333   42.1391   23.7569 O.3       1 UNK         0.0000 
  10262 O(2)       37.8311   48.3079   23.8727 O.2       1 UNK         0.0000 
  10263 N(1)       35.6499   47.7035   23.6850 N.am      1 UNK         0.0000 
  10264 C(1)       35.7494   46.2951   23.7362 C.ar      1 UNK         0.0000 
  10265 C(2)       36.8315   45.6068   24.2845 C.ar      1 UNK         0.0000 
  10266 C(3)       36.8386   44.2150   24.2881 C.ar      1 UNK         0.0000 
  10267 C(4)       35.7685   43.5004   23.7557 C.ar      1 UNK         0.0000 
  10268 C(5)       34.6729   44.1884   23.2355 C.ar      1 UNK         0.0000 
  10269 C(6)       34.6676   45.5759   23.2268 C.ar      1 UNK         0.0000 
  10270 C(7)       36.6407   48.6088   23.7318 C.2       1 UNK         0.0000 
  10271 C(8)       36.1998   50.0429   23.6108 C.3       1 UNK         0.0000 
  10272 H(1)       37.6721   46.1494   24.6992 H         1 UNK         0.0000 
  10273 H(2)       37.6894   43.6986   24.7151 H         1 UNK         0.0000 
  10274 H(3)       33.8298   43.6391   22.8352 H         1 UNK         0.0000 
  10275 H(4)       33.8170   46.1094   22.8209 H         1 UNK         0.0000 
  10276 H(5)       34.9598   41.7565   23.6089 H         1 UNK         0.0000 
  10277 H(6)       34.7240   48.0670   23.5158 H         1 UNK         0.0000 
  10278 H(7)       36.2781   50.5060   24.5600 H         1 UNK         0.0000 
  10279 H(8)       35.2031   50.1411   23.2668 H         1 UNK         0.0000 
  10280 H(9)       36.8803   50.5606   22.9860 H         1 UNK         0.0000 
  10281 O(1)       40.1672   37.1439    8.3393 O.3       1 UNK         0.0000 
  10282 O(2)       42.1650   38.3840    2.2953 O.2       1 UNK         0.0000 
  10283 N(1)       39.9838   38.4346    2.9262 N.am      1 UNK         0.0000 
  10284 C(1)       40.0833   38.0757    4.2891 C.ar      1 UNK         0.0000 
  10285 C(2)       41.1654   37.3898    4.8403 C.ar      1 UNK         0.0000 
  10286 C(3)       41.1725   37.0811    6.1975 C.ar      1 UNK         0.0000 
  10287 C(4)       40.1024   37.4437    7.0114 C.ar      1 UNK         0.0000 
  10288 C(5)       39.0068   38.1021    6.4543 C.ar      1 UNK         0.0000 
  10289 C(6)       39.0015   38.4150    5.1025 C.ar      1 UNK         0.0000 
  10290 C(7)       40.9746   38.5875    2.0327 C.2       1 UNK         0.0000 
  10291 C(8)       40.5337   39.0201    0.6600 C.3       1 UNK         0.0000 
  10292 H(1)       42.0060   37.1042    4.2200 H         1 UNK         0.0000 
  10293 H(2)       42.0233   36.5512    6.6077 H         1 UNK         0.0000 
  10294 H(3)       38.1637   38.3722    7.0780 H         1 UNK         0.0000 
  10295 H(4)       38.1509   38.9281    4.6710 H         1 UNK         0.0000 
  10296 H(5)       39.2937   37.2044    8.7451 H         1 UNK         0.0000 
  10297 H(6)       39.0579   38.6794    2.6087 H         1 UNK         0.0000 
  10298 H(7)       40.6120   38.1956    0.0000 H         1 UNK         0.0000 
  10299 H(8)       39.5370   39.3772    0.6397 H         1 UNK         0.0000 
  10300 H(9)       41.2142   39.7432    0.2920 H         1 UNK         0.0000 
  10301 O(1)       42.8907   48.4654    5.1545 O.3       1 UNK         0.0000 
  10302 O(2)       40.8928   42.2966    5.0387 O.2       1 UNK         0.0000 
  10303 N(1)       43.0740   42.9010    5.2264 N.am      1 UNK         0.0000 
  10304 C(1)       42.9745   44.3095    5.1752 C.ar      1 UNK         0.0000 
  10305 C(2)       41.8924   44.9977    4.6269 C.ar      1 UNK         0.0000 
  10306 C(3)       41.8853   46.3895    4.6234 C.ar      1 UNK         0.0000 
  10307 C(4)       42.9554   47.1041    5.1557 C.ar      1 UNK         0.0000 
  10308 C(5)       44.0510   46.4162    5.6759 C.ar      1 UNK         0.0000 
  10309 C(6)       44.0563   45.0286    5.6846 C.ar      1 UNK         0.0000 
  10310 C(7)       42.0832   41.9957    5.1796 C.2       1 UNK         0.0000 
  10311 C(8)       42.5241   40.5616    5.3006 C.3       1 UNK         0.0000 
  10312 H(1)       41.0518   44.4552    4.2122 H         1 UNK         0.0000 
  10313 H(2)       41.0345   46.9060    4.1963 H         1 UNK         0.0000 
  10314 H(3)       44.8941   46.9654    6.0762 H         1 UNK         0.0000 
  10315 H(4)       44.9069   44.4951    6.0906 H         1 UNK         0.0000 
  10316 H(5)       43.7641   48.8480    5.3025 H         1 UNK         0.0000 
  10317 H(6)       44.0000   42.5376    5.3956 H         1 UNK         0.0000 
  10318 H(7)       42.4458   40.0985    4.3514 H         1 UNK         0.0000 
  10319 H(8)       43.5208   40.4635    5.6446 H         1 UNK         0.0000 
  10320 H(9)       41.8436   40.0439    5.9254 H         1 UNK         0.0000 
  10321 O(1)       40.1476   56.6810    6.2473 O.3       1 UNK         0.0000 
  10322 O(2)       38.1497   55.4409   12.2913 O.2       1 UNK         0.0000 
  10323 N(1)       40.3309   55.3903   11.6604 N.am      1 UNK         0.0000 
  10324 C(1)       40.2314   55.7492   10.2975 C.ar      1 UNK         0.0000 
  10325 C(2)       39.1493   56.4351    9.7463 C.ar      1 UNK         0.0000 
  10326 C(3)       39.1422   56.7439    8.3892 C.ar      1 UNK         0.0000 
  10327 C(4)       40.2123   56.3812    7.5752 C.ar      1 UNK         0.0000 
  10328 C(5)       41.3079   55.7228    8.1323 C.ar      1 UNK         0.0000 
  10329 C(6)       41.3132   55.4100    9.4841 C.ar      1 UNK         0.0000 
  10330 C(7)       39.3401   55.2375   12.5539 C.2       1 UNK         0.0000 
  10331 C(8)       39.7810   54.8048   13.9266 C.3       1 UNK         0.0000 
  10332 H(1)       38.3087   56.7208   10.3666 H         1 UNK         0.0000 
  10333 H(2)       38.2914   57.2738    7.9789 H         1 UNK         0.0000 
  10334 H(3)       42.1510   55.4527    7.5086 H         1 UNK         0.0000 
  10335 H(4)       42.1638   54.8969    9.9156 H         1 UNK         0.0000 
  10336 H(5)       41.0210   56.6205    5.8415 H         1 UNK         0.0000 
  10337 H(6)       41.2568   55.1456   11.9779 H         1 UNK         0.0000 
  10338 H(7)       39.7027   55.6293   14.5866 H         1 UNK         0.0000 
  10339 H(8)       40.7777   54.4477   13.9469 H         1 UNK         0.0000 
  10340 H(9)       39.1005   54.0817   14.2946 H         1 UNK         0.0000 
  10341 O(1)       44.5010   45.3595    9.4321 O.3       1 UNK         0.0000 
  10342 O(2)       46.4989   51.5283    9.5479 O.2       1 UNK         0.0000 
  10343 N(1)       44.3177   50.9239    9.3602 N.am      1 UNK         0.0000 
  10344 C(1)       44.4172   49.5155    9.4114 C.ar      1 UNK         0.0000 
  10345 C(2)       45.4993   48.8272    9.9597 C.ar      1 UNK         0.0000 
  10346 C(3)       45.5064   47.4354    9.9633 C.ar      1 UNK         0.0000 
  10347 C(4)       44.4363   46.7208    9.4309 C.ar      1 UNK         0.0000 
  10348 C(5)       43.3407   47.4088    8.9107 C.ar      1 UNK         0.0000 
  10349 C(6)       43.3354   48.7963    8.9020 C.ar      1 UNK         0.0000 
  10350 C(7)       45.3085   51.8292    9.4070 C.2       1 UNK         0.0000 
  10351 C(8)       44.8676   53.2633    9.2860 C.3       1 UNK         0.0000 
  10352 H(1)       46.3399   49.3698   10.3744 H         1 UNK         0.0000 
  10353 H(2)       46.3572   46.9190   10.3903 H         1 UNK         0.0000 
  10354 H(3)       42.4976   46.8595    8.5104 H         1 UNK         0.0000 
  10355 H(4)       42.4848   49.3298    8.4961 H         1 UNK         0.0000 
  10356 H(5)       43.6276   44.9769    9.2841 H         1 UNK         0.0000 
  10357 H(6)       43.3917   51.2874    9.1910 H         1 UNK         0.0000 
  10358 H(7)       44.9459   53.7264   10.2352 H         1 UNK         0.0000 
  10359 H(8)       43.8709   53.3615    8.9420 H         1 UNK         0.0000 
  10360 H(9)       45.5481   53.7810    8.6612 H         1 UNK         0.0000 
  10361 O(1)       34.6809   57.5572   15.5017 O.3       1 UNK         0.0000 
  10362 O(2)       36.6788   58.7973    9.4577 O.2       1 UNK         0.0000 
  10363 N(1)       34.4976   58.8479   10.0886 N.am      1 UNK         0.0000 
  10364 C(1)       34.5971   58.4890   11.4515 C.ar      1 UNK         0.0000 
  10365 C(2)       35.6792   57.8031   12.0027 C.ar      1 UNK         0.0000 
  10366 C(3)       35.6862   57.4944   13.3599 C.ar      1 UNK         0.0000 
  10367 C(4)       34.6162   57.8570   14.1738 C.ar      1 UNK         0.0000 
  10368 C(5)       33.5206   58.5154   13.6167 C.ar      1 UNK         0.0000 
  10369 C(6)       33.5153   58.8283   12.2649 C.ar      1 UNK         0.0000 
  10370 C(7)       35.4884   59.0008    9.1951 C.2       1 UNK         0.0000 
  10371 C(8)       35.0475   59.4334    7.8224 C.3       1 UNK         0.0000 
  10372 H(1)       36.5198   57.5175   11.3824 H         1 UNK         0.0000 
  10373 H(2)       36.5371   56.9645   13.7701 H         1 UNK         0.0000 
  10374 H(3)       32.6774   58.7855   14.2404 H         1 UNK         0.0000 
  10375 H(4)       32.6647   59.3414   11.8334 H         1 UNK         0.0000 
  10376 H(5)       33.8075   57.6177   15.9075 H         1 UNK         0.0000 
  10377 H(6)       33.5716   59.0927    9.7711 H         1 UNK         0.0000 
  10378 H(7)       35.1258   58.6089    7.1624 H         1 UNK         0.0000 
  10379 H(8)       34.0507   59.7905    7.8021 H         1 UNK         0.0000 
  10380 H(9)       35.7280   60.1565    7.4544 H         1 UNK         0.0000 
  10381 O(1)       35.8137   54.1964   12.3169 O.3       1 UNK         0.0000 
  10382 O(2)       33.8158   48.0276   12.2011 O.2       1 UNK         0.0000 
  10383 N(1)       35.9970   48.6320   12.3888 N.am      1 UNK         0.0000 
  10384 C(1)       35.8975   50.0404   12.3376 C.ar      1 UNK         0.0000 
  10385 C(2)       34.8154   50.7287   11.7893 C.ar      1 UNK         0.0000 
  10386 C(3)       34.8083   52.1205   11.7858 C.ar      1 UNK         0.0000 
  10387 C(4)       35.8784   52.8351   12.3181 C.ar      1 UNK         0.0000 
  10388 C(5)       36.9740   52.1472   12.8383 C.ar      1 UNK         0.0000 
  10389 C(6)       36.9793   50.7596   12.8470 C.ar      1 UNK         0.0000 
  10390 C(7)       35.0062   47.7267   12.3420 C.2       1 UNK         0.0000 
  10391 C(8)       35.4471   46.2926   12.4630 C.3       1 UNK         0.0000 
  10392 H(1)       33.9748   50.1861   11.3746 H         1 UNK         0.0000 
  10393 H(2)       33.9575   52.6369   11.3587 H         1 UNK         0.0000 
  10394 H(3)       37.8171   52.6964   13.2386 H         1 UNK         0.0000 
  10395 H(4)       37.8299   50.2261   13.2530 H         1 UNK         0.0000 
  10396 H(5)       36.6871   54.5790   12.4649 H         1 UNK         0.0000 
  10397 H(6)       36.9230   48.2685   12.5580 H         1 UNK         0.0000 
  10398 H(7)       35.3688   45.8295   11.5138 H         1 UNK         0.0000 
  10399 H(8)       36.4438   46.1944   12.8070 H         1 UNK         0.0000 
  10400 H(9)       34.7666   45.7749   13.0878 H         1 UNK         0.0000 
  10401 O(1)       40.1476   62.4120   13.4097 O.3       1 UNK         0.0000 
  10402 O(2)       38.1497   61.1719   19.4537 O.2       1 UNK         0.0000 
  10403 N(1)       40.3309   61.1213   18.8228 N.am      1 UNK         0.0000 
  10404 C(1)       40.2314   61.4802   17.4599 C.ar      1 UNK         0.0000 
  10405 C(2)       39.1493   62.1661   16.9087 C.ar      1 UNK         0.0000 
  10406 C(3)       39.1422   62.4748   15.5516 C.ar      1 UNK         0.0000 
  10407 C(4)       40.2123   62.1122   14.7376 C.ar      1 UNK         0.0000 
  10408 C(5)       41.3079   61.4538   15.2947 C.ar      1 UNK         0.0000 
  10409 C(6)       41.3132   61.1409   16.6465 C.ar      1 UNK         0.0000 
  10410 C(7)       39.3401   60.9684   19.7163 C.2       1 UNK         0.0000 
  10411 C(8)       39.7810   60.5358   21.0890 C.3       1 UNK         0.0000 
  10412 H(1)       38.3087   62.4517   17.5290 H         1 UNK         0.0000 
  10413 H(2)       38.2914   63.0047   15.1413 H         1 UNK         0.0000 
  10414 H(3)       42.1510   61.1837   14.6710 H         1 UNK         0.0000 
  10415 H(4)       42.1638   60.6279   17.0780 H         1 UNK         0.0000 
  10416 H(5)       41.0210   62.3515   13.0039 H         1 UNK         0.0000 
  10417 H(6)       41.2568   60.8765   19.1403 H         1 UNK         0.0000 
  10418 H(7)       39.7027   61.3603   21.7490 H         1 UNK         0.0000 
  10419 H(8)       40.7777   60.1787   21.1093 H         1 UNK         0.0000 
  10420 H(9)       39.1005   59.8127   21.4570 H         1 UNK         0.0000 
  10421 O(1)       44.5010   51.0905   16.5945 O.3       1 UNK         0.0000 
  10422 O(2)       46.4989   57.2593   16.7103 O.2       1 UNK         0.0000 
  10423 N(1)       44.3177   56.6549   16.5226 N.am      1 UNK         0.0000 
  10424 C(1)       44.4172   55.2464   16.5738 C.ar      1 UNK         0.0000 
  10425 C(2)       45.4993   54.5582   17.1221 C.ar      1 UNK         0.0000 
  10426 C(3)       45.5064   53.1664   17.1257 C.ar      1 UNK         0.0000 
  10427 C(4)       44.4363   52.4518   16.5933 C.ar      1 UNK         0.0000 
  10428 C(5)       43.3407   53.1397   16.0731 C.ar      1 UNK         0.0000 
  10429 C(6)       43.3354   54.5273   16.0644 C.ar      1 UNK         0.0000 
  10430 C(7)       45.3085   57.5602   16.5694 C.2       1 UNK         0.0000 
  10431 C(8)       44.8676   58.9943   16.4484 C.3       1 UNK         0.0000 
  10432 H(1)       46.3399   55.1008   17.5368 H         1 UNK         0.0000 
  10433 H(2)       46.3572   52.6499   17.5527 H         1 UNK         0.0000 
  10434 H(3)       42.4976   52.5905   15.6728 H         1 UNK         0.0000 
  10435 H(4)       42.4848   55.0608   15.6585 H         1 UNK         0.0000 
  10436 H(5)       43.6276   50.7079   16.4465 H         1 UNK         0.0000 
  10437 H(6)       43.3917   57.0183   16.3534 H         1 UNK         0.0000 
  10438 H(7)       44.9459   59.4574   17.3976 H         1 UNK         0.0000 
  10439 H(8)       43.8709   59.0924   16.1044 H         1 UNK         0.0000 
  10440 H(9)       45.5481   59.5120   15.8236 H         1 UNK         0.0000 
  10441 O(1)       40.1672   48.6059   22.6641 O.3       1 UNK         0.0000 
  10442 O(2)       42.1650   49.8459   16.6201 O.2       1 UNK         0.0000 
  10443 N(1)       39.9838   49.8966   17.2510 N.am      1 UNK         0.0000 
  10444 C(1)       40.0833   49.5377   18.6139 C.ar      1 UNK         0.0000 
  10445 C(2)       41.1654   48.8518   19.1651 C.ar      1 UNK         0.0000 
  10446 C(3)       41.1725   48.5430   20.5223 C.ar      1 UNK         0.0000 
  10447 C(4)       40.1024   48.9057   21.3362 C.ar      1 UNK         0.0000 
  10448 C(5)       39.0068   49.5641   20.7791 C.ar      1 UNK         0.0000 
  10449 C(6)       39.0015   49.8769   19.4273 C.ar      1 UNK         0.0000 
  10450 C(7)       40.9746   50.0494   16.3575 C.2       1 UNK         0.0000 
  10451 C(8)       40.5337   50.4820   14.9848 C.3       1 UNK         0.0000 
  10452 H(1)       42.0060   48.5661   18.5448 H         1 UNK         0.0000 
  10453 H(2)       42.0233   48.0131   20.9325 H         1 UNK         0.0000 
  10454 H(3)       38.1637   49.8341   21.4028 H         1 UNK         0.0000 
  10455 H(4)       38.1509   50.3900   18.9958 H         1 UNK         0.0000 
  10456 H(5)       39.2937   48.6664   23.0699 H         1 UNK         0.0000 
  10457 H(6)       39.0579   50.1413   16.9335 H         1 UNK         0.0000 
  10458 H(7)       40.6120   49.6576   14.3248 H         1 UNK         0.0000 
  10459 H(8)       39.5370   50.8392   14.9645 H         1 UNK         0.0000 
  10460 H(9)       41.2142   51.2051   14.6168 H         1 UNK         0.0000 
  10461 O(1)       42.8907   59.9274   19.4793 O.3       1 UNK         0.0000 
  10462 O(2)       40.8928   53.7586   19.3635 O.2       1 UNK         0.0000 
  10463 N(1)       43.0740   54.3630   19.5512 N.am      1 UNK         0.0000 
  10464 C(1)       42.9745   55.7714   19.5000 C.ar      1 UNK         0.0000 
  10465 C(2)       41.8924   56.4596   18.9517 C.ar      1 UNK         0.0000 
  10466 C(3)       41.8853   57.8514   18.9482 C.ar      1 UNK         0.0000 
  10467 C(4)       42.9554   58.5660   19.4805 C.ar      1 UNK         0.0000 
  10468 C(5)       44.0510   57.8781   20.0007 C.ar      1 UNK         0.0000 
  10469 C(6)       44.0563   56.4906   20.0094 C.ar      1 UNK         0.0000 
  10470 C(7)       42.0832   53.4577   19.5044 C.2       1 UNK         0.0000 
  10471 C(8)       42.5241   52.0235   19.6254 C.3       1 UNK         0.0000 
  10472 H(1)       41.0518   55.9171   18.5370 H         1 UNK         0.0000 
  10473 H(2)       41.0345   58.3679   18.5211 H         1 UNK         0.0000 
  10474 H(3)       44.8941   58.4274   20.4010 H         1 UNK         0.0000 
  10475 H(4)       44.9069   55.9571   20.4154 H         1 UNK         0.0000 
  10476 H(5)       43.7641   60.3100   19.6273 H         1 UNK         0.0000 
  10477 H(6)       44.0000   53.9995   19.7204 H         1 UNK         0.0000 
  10478 H(7)       42.4458   51.5604   18.6762 H         1 UNK         0.0000 
  10479 H(8)       43.5208   51.9254   19.9694 H         1 UNK         0.0000 
  10480 H(9)       41.8436   51.5059   20.2502 H         1 UNK         0.0000 
  10481 O(1)       38.5568   53.4606   20.5721 O.3       1 UNK         0.0000 
  10482 O(2)       36.5590   52.2205   26.6161 O.2       1 UNK         0.0000 
  10483 N(1)       38.7401   52.1699   25.9852 N.am      1 UNK         0.0000 
  10484 C(1)       38.6406   52.5288   24.6223 C.ar      1 UNK         0.0000 
  10485 C(2)       37.5585   53.2147   24.0711 C.ar      1 UNK         0.0000 
  10486 C(3)       37.5515   53.5235   22.7140 C.ar      1 UNK         0.0000 
  10487 C(4)       38.6215   53.1608   21.9000 C.ar      1 UNK         0.0000 
  10488 C(5)       39.7171   52.5024   22.4571 C.ar      1 UNK         0.0000 
  10489 C(6)       39.7224   52.1896   23.8089 C.ar      1 UNK         0.0000 
  10490 C(7)       37.7493   52.0171   26.8787 C.2       1 UNK         0.0000 
  10491 C(8)       38.1902   51.5844   28.2514 C.3       1 UNK         0.0000 
  10492 H(1)       36.7180   53.5004   24.6914 H         1 UNK         0.0000 
  10493 H(2)       36.7006   54.0534   22.3037 H         1 UNK         0.0000 
  10494 H(3)       40.5603   52.2323   21.8334 H         1 UNK         0.0000 
  10495 H(4)       40.5730   51.6765   24.2404 H         1 UNK         0.0000 
  10496 H(5)       39.4302   53.4001   20.1663 H         1 UNK         0.0000 
  10497 H(6)       39.6661   51.9252   26.3027 H         1 UNK         0.0000 
  10498 H(7)       38.1119   52.4089   28.9114 H         1 UNK         0.0000 
  10499 H(8)       39.1870   51.2273   28.2717 H         1 UNK         0.0000 
  10500 H(9)       37.5097   50.8613   28.6194 H         1 UNK         0.0000 
  10501 O(1)       37.4240   56.8215   23.7569 O.3       1 UNK         0.0000 
  10502 O(2)       39.4219   62.9902   23.8727 O.2       1 UNK         0.0000 
  10503 N(1)       37.2407   62.3858   23.6850 N.am      1 UNK         0.0000 
  10504 C(1)       37.3402   60.9774   23.7362 C.ar      1 UNK         0.0000 
  10505 C(2)       38.4223   60.2892   24.2845 C.ar      1 UNK         0.0000 
  10506 C(3)       38.4294   58.8974   24.2881 C.ar      1 UNK         0.0000 
  10507 C(4)       37.3593   58.1828   23.7557 C.ar      1 UNK         0.0000 
  10508 C(5)       36.2637   58.8707   23.2355 C.ar      1 UNK         0.0000 
  10509 C(6)       36.2584   60.2582   23.2268 C.ar      1 UNK         0.0000 
  10510 C(7)       38.2315   63.2911   23.7318 C.2       1 UNK         0.0000 
  10511 C(8)       37.7906   64.7253   23.6108 C.3       1 UNK         0.0000 
  10512 H(1)       39.2629   60.8317   24.6992 H         1 UNK         0.0000 
  10513 H(2)       39.2802   58.3809   24.7151 H         1 UNK         0.0000 
  10514 H(3)       35.4206   58.3214   22.8352 H         1 UNK         0.0000 
  10515 H(4)       35.4078   60.7917   22.8209 H         1 UNK         0.0000 
  10516 H(5)       36.5506   56.4389   23.6089 H         1 UNK         0.0000 
  10517 H(6)       36.3147   62.7493   23.5158 H         1 UNK         0.0000 
  10518 H(7)       37.8689   65.1884   24.5600 H         1 UNK         0.0000 
  10519 H(8)       36.7939   64.8234   23.2668 H         1 UNK         0.0000 
  10520 H(9)       38.4711   65.2429   22.9860 H         1 UNK         0.0000 
  10521 O(1)       41.7579   51.8263    8.3393 O.3       1 UNK         0.0000 
  10522 O(2)       43.7557   53.0663    2.2953 O.2       1 UNK         0.0000 
  10523 N(1)       41.5746   53.1170    2.9262 N.am      1 UNK         0.0000 
  10524 C(1)       41.6741   52.7581    4.2891 C.ar      1 UNK         0.0000 
  10525 C(2)       42.7562   52.0722    4.8403 C.ar      1 UNK         0.0000 
  10526 C(3)       42.7632   51.7634    6.1975 C.ar      1 UNK         0.0000 
  10527 C(4)       41.6932   52.1261    7.0114 C.ar      1 UNK         0.0000 
  10528 C(5)       40.5976   52.7845    6.4543 C.ar      1 UNK         0.0000 
  10529 C(6)       40.5923   53.0973    5.1025 C.ar      1 UNK         0.0000 
  10530 C(7)       42.5654   53.2698    2.0327 C.2       1 UNK         0.0000 
  10531 C(8)       42.1245   53.7024    0.6600 C.3       1 UNK         0.0000 
  10532 H(1)       43.5968   51.7865    4.2200 H         1 UNK         0.0000 
  10533 H(2)       43.6141   51.2335    6.6077 H         1 UNK         0.0000 
  10534 H(3)       39.7544   53.0545    7.0780 H         1 UNK         0.0000 
  10535 H(4)       39.7417   53.6104    4.6710 H         1 UNK         0.0000 
  10536 H(5)       40.8845   51.8868    8.7451 H         1 UNK         0.0000 
  10537 H(6)       40.6486   53.3617    2.6087 H         1 UNK         0.0000 
  10538 H(7)       42.2028   52.8780    0.0000 H         1 UNK         0.0000 
  10539 H(8)       41.1277   54.0596    0.6397 H         1 UNK         0.0000 
  10540 H(9)       42.8050   54.4255    0.2920 H         1 UNK         0.0000 
  10541 O(1)       44.4814   63.1478    5.1545 O.3       1 UNK         0.0000 
  10542 O(2)       42.4836   56.9790    5.0387 O.2       1 UNK         0.0000 
  10543 N(1)       44.6648   57.5834    5.2264 N.am      1 UNK         0.0000 
  10544 C(1)       44.5653   58.9918    5.1752 C.ar      1 UNK         0.0000 
  10545 C(2)       43.4832   59.6800    4.6269 C.ar      1 UNK         0.0000 
  10546 C(3)       43.4761   61.0718    4.6234 C.ar      1 UNK         0.0000 
  10547 C(4)       44.5462   61.7864    5.1557 C.ar      1 UNK         0.0000 
  10548 C(5)       45.6418   61.0985    5.6759 C.ar      1 UNK         0.0000 
  10549 C(6)       45.6471   59.7110    5.6846 C.ar      1 UNK         0.0000 
  10550 C(7)       43.6740   56.6781    5.1796 C.2       1 UNK         0.0000 
  10551 C(8)       44.1149   55.2439    5.3006 C.3       1 UNK         0.0000 
  10552 H(1)       42.6426   59.1375    4.2122 H         1 UNK         0.0000 
  10553 H(2)       42.6253   61.5883    4.1963 H         1 UNK         0.0000 
  10554 H(3)       46.4849   61.6478    6.0762 H         1 UNK         0.0000 
  10555 H(4)       46.4977   59.1775    6.0906 H         1 UNK         0.0000 
  10556 H(5)       45.3549   63.5304    5.3025 H         1 UNK         0.0000 
  10557 H(6)       45.5907   57.2199    5.3956 H         1 UNK         0.0000 
  10558 H(7)       44.0366   54.7808    4.3514 H         1 UNK         0.0000 
  10559 H(8)       45.1116   55.1458    5.6446 H         1 UNK         0.0000 
  10560 H(9)       43.4344   54.7263    5.9254 H         1 UNK         0.0000 
  10561 O(1)       41.7383   71.3634    6.2473 O.3       1 UNK         0.0000 
  10562 O(2)       39.7405   70.1233   12.2913 O.2       1 UNK         0.0000 
  10563 N(1)       41.9217   70.0726   11.6604 N.am      1 UNK         0.0000 
  10564 C(1)       41.8222   70.4316   10.2975 C.ar      1 UNK         0.0000 
  10565 C(2)       40.7401   71.1174    9.7463 C.ar      1 UNK         0.0000 
  10566 C(3)       40.7330   71.4262    8.3892 C.ar      1 UNK         0.0000 
  10567 C(4)       41.8030   71.0635    7.5752 C.ar      1 UNK         0.0000 
  10568 C(5)       42.8987   70.4052    8.1323 C.ar      1 UNK         0.0000 
  10569 C(6)       42.9040   70.0923    9.4841 C.ar      1 UNK         0.0000 
  10570 C(7)       40.9309   69.9198   12.5539 C.2       1 UNK         0.0000 
  10571 C(8)       41.3717   69.4872   13.9266 C.3       1 UNK         0.0000 
  10572 H(1)       39.8995   71.4031   10.3666 H         1 UNK         0.0000 
  10573 H(2)       39.8822   71.9561    7.9789 H         1 UNK         0.0000 
  10574 H(3)       43.7418   70.1351    7.5086 H         1 UNK         0.0000 
  10575 H(4)       43.7546   69.5792    9.9156 H         1 UNK         0.0000 
  10576 H(5)       42.6118   71.3028    5.8415 H         1 UNK         0.0000 
  10577 H(6)       42.8476   69.8279   11.9779 H         1 UNK         0.0000 
  10578 H(7)       41.2935   70.3116   14.5866 H         1 UNK         0.0000 
  10579 H(8)       42.3685   69.1300   13.9469 H         1 UNK         0.0000 
  10580 H(9)       40.6913   68.7641   14.2946 H         1 UNK         0.0000 
  10581 O(1)       46.0918   60.0419    9.4321 O.3       1 UNK         0.0000 
  10582 O(2)       48.0896   66.2106    9.5479 O.2       1 UNK         0.0000 
  10583 N(1)       45.9085   65.6062    9.3602 N.am      1 UNK         0.0000 
  10584 C(1)       46.0080   64.1978    9.4114 C.ar      1 UNK         0.0000 
  10585 C(2)       47.0901   63.5096    9.9597 C.ar      1 UNK         0.0000 
  10586 C(3)       47.0971   62.1178    9.9633 C.ar      1 UNK         0.0000 
  10587 C(4)       46.0271   61.4032    9.4309 C.ar      1 UNK         0.0000 
  10588 C(5)       44.9315   62.0911    8.9107 C.ar      1 UNK         0.0000 
  10589 C(6)       44.9262   63.4786    8.9020 C.ar      1 UNK         0.0000 
  10590 C(7)       46.8993   66.5115    9.4070 C.2       1 UNK         0.0000 
  10591 C(8)       46.4584   67.9457    9.2860 C.3       1 UNK         0.0000 
  10592 H(1)       47.9306   64.0521   10.3744 H         1 UNK         0.0000 
  10593 H(2)       47.9480   61.6013   10.3903 H         1 UNK         0.0000 
  10594 H(3)       44.0883   61.5418    8.5104 H         1 UNK         0.0000 
  10595 H(4)       44.0756   64.0121    8.4961 H         1 UNK         0.0000 
  10596 H(5)       45.2184   59.6593    9.2841 H         1 UNK         0.0000 
  10597 H(6)       44.9825   65.9697    9.1910 H         1 UNK         0.0000 
  10598 H(7)       46.5367   68.4088   10.2352 H         1 UNK         0.0000 
  10599 H(8)       45.4616   68.0438    8.9420 H         1 UNK         0.0000 
  10600 H(9)       47.1389   68.4633    8.6612 H         1 UNK         0.0000 
  10601 O(1)       36.2717   72.2396   15.5017 O.3       1 UNK         0.0000 
  10602 O(2)       38.2695   73.4796    9.4577 O.2       1 UNK         0.0000 
  10603 N(1)       36.0884   73.5303   10.0886 N.am      1 UNK         0.0000 
  10604 C(1)       36.1878   73.1714   11.4515 C.ar      1 UNK         0.0000 
  10605 C(2)       37.2700   72.4855   12.0027 C.ar      1 UNK         0.0000 
  10606 C(3)       37.2770   72.1767   13.3599 C.ar      1 UNK         0.0000 
  10607 C(4)       36.2070   72.5394   14.1738 C.ar      1 UNK         0.0000 
  10608 C(5)       35.1114   73.1977   13.6167 C.ar      1 UNK         0.0000 
  10609 C(6)       35.1061   73.5106   12.2649 C.ar      1 UNK         0.0000 
  10610 C(7)       37.0792   73.6831    9.1951 C.2       1 UNK         0.0000 
  10611 C(8)       36.6383   74.1157    7.8224 C.3       1 UNK         0.0000 
  10612 H(1)       38.1105   72.1998   11.3824 H         1 UNK         0.0000 
  10613 H(2)       38.1278   71.6468   13.7701 H         1 UNK         0.0000 
  10614 H(3)       34.2682   73.4678   14.2404 H         1 UNK         0.0000 
  10615 H(4)       34.2555   74.0237   11.8334 H         1 UNK         0.0000 
  10616 H(5)       35.3983   72.3001   15.9075 H         1 UNK         0.0000 
  10617 H(6)       35.1624   73.7750    9.7711 H         1 UNK         0.0000 
  10618 H(7)       36.7166   73.2913    7.1624 H         1 UNK         0.0000 
  10619 H(8)       35.6415   74.4729    7.8021 H         1 UNK         0.0000 
  10620 H(9)       37.3188   74.8388    7.4544 H         1 UNK         0.0000 
  10621 O(1)       37.4044   68.8787   12.3169 O.3       1 UNK         0.0000 
  10622 O(2)       35.4066   62.7099   12.2011 O.2       1 UNK         0.0000 
  10623 N(1)       37.5878   63.3143   12.3888 N.am      1 UNK         0.0000 
  10624 C(1)       37.4883   64.7228   12.3376 C.ar      1 UNK         0.0000 
  10625 C(2)       36.4062   65.4110   11.7893 C.ar      1 UNK         0.0000 
  10626 C(3)       36.3991   66.8028   11.7858 C.ar      1 UNK         0.0000 
  10627 C(4)       37.4692   67.5174   12.3181 C.ar      1 UNK         0.0000 
  10628 C(5)       38.5648   66.8295   12.8383 C.ar      1 UNK         0.0000 
  10629 C(6)       38.5701   65.4419   12.8470 C.ar      1 UNK         0.0000 
  10630 C(7)       36.5970   62.4090   12.3420 C.2       1 UNK         0.0000 
  10631 C(8)       37.0379   60.9749   12.4630 C.3       1 UNK         0.0000 
  10632 H(1)       35.5656   64.8685   11.3746 H         1 UNK         0.0000 
  10633 H(2)       35.5483   67.3193   11.3587 H         1 UNK         0.0000 
  10634 H(3)       39.4079   67.3787   13.2386 H         1 UNK         0.0000 
  10635 H(4)       39.4207   64.9084   13.2530 H         1 UNK         0.0000 
  10636 H(5)       38.2779   69.2613   12.4649 H         1 UNK         0.0000 
  10637 H(6)       38.5137   62.9509   12.5580 H         1 UNK         0.0000 
  10638 H(7)       36.9596   60.5118   11.5138 H         1 UNK         0.0000 
  10639 H(8)       38.0346   60.8768   12.8070 H         1 UNK         0.0000 
  10640 H(9)       36.3574   60.4572   13.0878 H         1 UNK         0.0000 
  10641 O(1)       41.7383   77.0943   13.4097 O.3       1 UNK         0.0000 
  10642 O(2)       39.7405   75.8542   19.4537 O.2       1 UNK         0.0000 
  10643 N(1)       41.9217   75.8036   18.8228 N.am      1 UNK         0.0000 
  10644 C(1)       41.8222   76.1625   17.4599 C.ar      1 UNK         0.0000 
  10645 C(2)       40.7401   76.8484   16.9087 C.ar      1 UNK         0.0000 
  10646 C(3)       40.7330   77.1572   15.5516 C.ar      1 UNK         0.0000 
  10647 C(4)       41.8030   76.7945   14.7376 C.ar      1 UNK         0.0000 
  10648 C(5)       42.8987   76.1361   15.2947 C.ar      1 UNK         0.0000 
  10649 C(6)       42.9040   75.8232   16.6465 C.ar      1 UNK         0.0000 
  10650 C(7)       40.9309   75.6508   19.7163 C.2       1 UNK         0.0000 
  10651 C(8)       41.3717   75.2181   21.0890 C.3       1 UNK         0.0000 
  10652 H(1)       39.8995   77.1341   17.5290 H         1 UNK         0.0000 
  10653 H(2)       39.8822   77.6871   15.1413 H         1 UNK         0.0000 
  10654 H(3)       43.7418   75.8660   14.6710 H         1 UNK         0.0000 
  10655 H(4)       43.7546   75.3102   17.0780 H         1 UNK         0.0000 
  10656 H(5)       42.6118   77.0338   13.0039 H         1 UNK         0.0000 
  10657 H(6)       42.8476   75.5589   19.1403 H         1 UNK         0.0000 
  10658 H(7)       41.2935   76.0426   21.7490 H         1 UNK         0.0000 
  10659 H(8)       42.3685   74.8610   21.1093 H         1 UNK         0.0000 
  10660 H(9)       40.6913   74.4950   21.4570 H         1 UNK         0.0000 
  10661 O(1)       46.0918   65.7728   16.5945 O.3       1 UNK         0.0000 
  10662 O(2)       48.0896   71.9416   16.7103 O.2       1 UNK         0.0000 
  10663 N(1)       45.9085   71.3372   16.5226 N.am      1 UNK         0.0000 
  10664 C(1)       46.0080   69.9288   16.5738 C.ar      1 UNK         0.0000 
  10665 C(2)       47.0901   69.2405   17.1221 C.ar      1 UNK         0.0000 
  10666 C(3)       47.0971   67.8487   17.1257 C.ar      1 UNK         0.0000 
  10667 C(4)       46.0271   67.1341   16.5933 C.ar      1 UNK         0.0000 
  10668 C(5)       44.9315   67.8221   16.0731 C.ar      1 UNK         0.0000 
  10669 C(6)       44.9262   69.2096   16.0644 C.ar      1 UNK         0.0000 
  10670 C(7)       46.8993   72.2425   16.5694 C.2       1 UNK         0.0000 
  10671 C(8)       46.4584   73.6766   16.4484 C.3       1 UNK         0.0000 
  10672 H(1)       47.9306   69.7831   17.5368 H         1 UNK         0.0000 
  10673 H(2)       47.9480   67.3323   17.5527 H         1 UNK         0.0000 
  10674 H(3)       44.0883   67.2728   15.6728 H         1 UNK         0.0000 
  10675 H(4)       44.0756   69.7431   15.6585 H         1 UNK         0.0000 
  10676 H(5)       45.2184   65.3902   16.4465 H         1 UNK         0.0000 
  10677 H(6)       44.9825   71.7007   16.3534 H         1 UNK         0.0000 
  10678 H(7)       46.5367   74.1397   17.3976 H         1 UNK         0.0000 
  10679 H(8)       45.4616   73.7748   16.1044 H         1 UNK         0.0000 
  10680 H(9)       47.1389   74.1943   15.8236 H         1 UNK         0.0000 
  10681 O(1)       41.7579   63.2882   22.6641 O.3       1 UNK         0.0000 
  10682 O(2)       43.7557   64.5283   16.6201 O.2       1 UNK         0.0000 
  10683 N(1)       41.5746   64.5789   17.2510 N.am      1 UNK         0.0000 
  10684 C(1)       41.6741   64.2200   18.6139 C.ar      1 UNK         0.0000 
  10685 C(2)       42.7562   63.5341   19.1651 C.ar      1 UNK         0.0000 
  10686 C(3)       42.7632   63.2253   20.5223 C.ar      1 UNK         0.0000 
  10687 C(4)       41.6932   63.5880   21.3362 C.ar      1 UNK         0.0000 
  10688 C(5)       40.5976   64.2464   20.7791 C.ar      1 UNK         0.0000 
  10689 C(6)       40.5923   64.5593   19.4273 C.ar      1 UNK         0.0000 
  10690 C(7)       42.5654   64.7317   16.3575 C.2       1 UNK         0.0000 
  10691 C(8)       42.1245   65.1644   14.9848 C.3       1 UNK         0.0000 
  10692 H(1)       43.5968   63.2484   18.5448 H         1 UNK         0.0000 
  10693 H(2)       43.6141   62.6954   20.9325 H         1 UNK         0.0000 
  10694 H(3)       39.7544   64.5165   21.4028 H         1 UNK         0.0000 
  10695 H(4)       39.7417   65.0723   18.9958 H         1 UNK         0.0000 
  10696 H(5)       40.8845   63.3487   23.0699 H         1 UNK         0.0000 
  10697 H(6)       40.6486   64.8236   16.9335 H         1 UNK         0.0000 
  10698 H(7)       42.2028   64.3399   14.3248 H         1 UNK         0.0000 
  10699 H(8)       41.1277   65.5215   14.9645 H         1 UNK         0.0000 
  10700 H(9)       42.8050   65.8875   14.6168 H         1 UNK         0.0000 
  10701 O(1)       44.4814   74.6097   19.4793 O.3       1 UNK         0.0000 
  10702 O(2)       42.4836   68.4409   19.3635 O.2       1 UNK         0.0000 
  10703 N(1)       44.6648   69.0453   19.5512 N.am      1 UNK         0.0000 
  10704 C(1)       44.5653   70.4537   19.5000 C.ar      1 UNK         0.0000 
  10705 C(2)       43.4832   71.1420   18.9517 C.ar      1 UNK         0.0000 
  10706 C(3)       43.4761   72.5338   18.9482 C.ar      1 UNK         0.0000 
  10707 C(4)       44.5462   73.2484   19.4805 C.ar      1 UNK         0.0000 
  10708 C(5)       45.6418   72.5605   20.0007 C.ar      1 UNK         0.0000 
  10709 C(6)       45.6471   71.1729   20.0094 C.ar      1 UNK         0.0000 
  10710 C(7)       43.6740   68.1400   19.5044 C.2       1 UNK         0.0000 
  10711 C(8)       44.1149   66.7059   19.6254 C.3       1 UNK         0.0000 
  10712 H(1)       42.6426   70.5994   18.5370 H         1 UNK         0.0000 
  10713 H(2)       42.6253   73.0502   18.5211 H         1 UNK         0.0000 
  10714 H(3)       46.4849   73.1097   20.4010 H         1 UNK         0.0000 
  10715 H(4)       46.4977   70.6394   20.4154 H         1 UNK         0.0000 
  10716 H(5)       45.3549   74.9923   19.6273 H         1 UNK         0.0000 
  10717 H(6)       45.5907   68.6818   19.7204 H         1 UNK         0.0000 
  10718 H(7)       44.0366   66.2428   18.6762 H         1 UNK         0.0000 
  10719 H(8)       45.1116   66.6077   19.9694 H         1 UNK         0.0000 
  10720 H(9)       43.4344   66.1882   20.2502 H         1 UNK         0.0000 
  10721 O(1)       40.1476   68.1430   20.5721 O.3       1 UNK         0.0000 
  10722 O(2)       38.1497   66.9029   26.6161 O.2       1 UNK         0.0000 
  10723 N(1)       40.3309   66.8522   25.9852 N.am      1 UNK         0.0000 
  10724 C(1)       40.2314   67.2112   24.6223 C.ar      1 UNK         0.0000 
  10725 C(2)       39.1493   67.8970   24.0711 C.ar      1 UNK         0.0000 
  10726 C(3)       39.1422   68.2058   22.7140 C.ar      1 UNK         0.0000 
  10727 C(4)       40.2123   67.8431   21.9000 C.ar      1 UNK         0.0000 
  10728 C(5)       41.3079   67.1848   22.4571 C.ar      1 UNK         0.0000 
  10729 C(6)       41.3132   66.8719   23.8089 C.ar      1 UNK         0.0000 
  10730 C(7)       39.3401   66.6994   26.8787 C.2       1 UNK         0.0000 
  10731 C(8)       39.7810   66.2668   28.2514 C.3       1 UNK         0.0000 
  10732 H(1)       38.3087   68.1827   24.6914 H         1 UNK         0.0000 
  10733 H(2)       38.2914   68.7357   22.3037 H         1 UNK         0.0000 
  10734 H(3)       42.1510   66.9147   21.8334 H         1 UNK         0.0000 
  10735 H(4)       42.1638   66.3588   24.2404 H         1 UNK         0.0000 
  10736 H(5)       41.0210   68.0824   20.1663 H         1 UNK         0.0000 
  10737 H(6)       41.2568   66.6075   26.3027 H         1 UNK         0.0000 
  10738 H(7)       39.7027   67.0912   28.9114 H         1 UNK         0.0000 
  10739 H(8)       40.7777   65.9096   28.2717 H         1 UNK         0.0000 
  10740 H(9)       39.1005   65.5437   28.6194 H         1 UNK         0.0000 
  10741 O(1)       39.0148   71.5038   23.7569 O.3       1 UNK         0.0000 
  10742 O(2)       41.0126   77.6726   23.8727 O.2       1 UNK         0.0000 
  10743 N(1)       38.8315   77.0682   23.6850 N.am      1 UNK         0.0000 
  10744 C(1)       38.9310   75.6597   23.7362 C.ar      1 UNK         0.0000 
  10745 C(2)       40.0131   74.9715   24.2845 C.ar      1 UNK         0.0000 
  10746 C(3)       40.0201   73.5797   24.2881 C.ar      1 UNK         0.0000 
  10747 C(4)       38.9501   72.8651   23.7557 C.ar      1 UNK         0.0000 
  10748 C(5)       37.8545   73.5530   23.2355 C.ar      1 UNK         0.0000 
  10749 C(6)       37.8492   74.9406   23.2268 C.ar      1 UNK         0.0000 
  10750 C(7)       39.8223   77.9735   23.7318 C.2       1 UNK         0.0000 
  10751 C(8)       39.3814   79.4076   23.6108 C.3       1 UNK         0.0000 
  10752 H(1)       40.8536   75.5140   24.6992 H         1 UNK         0.0000 
  10753 H(2)       40.8710   73.0632   24.7151 H         1 UNK         0.0000 
  10754 H(3)       37.0113   73.0038   22.8352 H         1 UNK         0.0000 
  10755 H(4)       36.9986   75.4741   22.8209 H         1 UNK         0.0000 
  10756 H(5)       38.1414   71.1212   23.6089 H         1 UNK         0.0000 
  10757 H(6)       37.9055   77.4316   23.5158 H         1 UNK         0.0000 
  10758 H(7)       39.4597   79.8707   24.5600 H         1 UNK         0.0000 
  10759 H(8)       38.3846   79.5057   23.2668 H         1 UNK         0.0000 
  10760 H(9)       40.0619   79.9253   22.9860 H         1 UNK         0.0000 
  10761 O(1)       43.3487   66.5086    8.3393 O.3       1 UNK         0.0000 
  10762 O(2)       45.3465   67.7487    2.2953 O.2       1 UNK         0.0000 
  10763 N(1)       43.1654   67.7993    2.9262 N.am      1 UNK         0.0000 
  10764 C(1)       43.2648   67.4404    4.2891 C.ar      1 UNK         0.0000 
  10765 C(2)       44.3470   66.7545    4.8403 C.ar      1 UNK         0.0000 
  10766 C(3)       44.3540   66.4457    6.1975 C.ar      1 UNK         0.0000 
  10767 C(4)       43.2840   66.8084    7.0114 C.ar      1 UNK         0.0000 
  10768 C(5)       42.1884   67.4668    6.4543 C.ar      1 UNK         0.0000 
  10769 C(6)       42.1831   67.7797    5.1025 C.ar      1 UNK         0.0000 
  10770 C(7)       44.1562   67.9521    2.0327 C.2       1 UNK         0.0000 
  10771 C(8)       43.7153   68.3848    0.6600 C.3       1 UNK         0.0000 
  10772 H(1)       45.1875   66.4688    4.2200 H         1 UNK         0.0000 
  10773 H(2)       45.2048   65.9158    6.6077 H         1 UNK         0.0000 
  10774 H(3)       41.3452   67.7369    7.0780 H         1 UNK         0.0000 
  10775 H(4)       41.3325   68.2927    4.6710 H         1 UNK         0.0000 
  10776 H(5)       42.4753   66.5691    8.7451 H         1 UNK         0.0000 
  10777 H(6)       42.2394   68.0440    2.6087 H         1 UNK         0.0000 
  10778 H(7)       43.7936   67.5603    0.0000 H         1 UNK         0.0000 
  10779 H(8)       42.7185   68.7419    0.6397 H         1 UNK         0.0000 
  10780 H(9)       44.3958   69.1079    0.2920 H         1 UNK         0.0000 
  10781 O(1)       46.0722   77.8301    5.1545 O.3       1 UNK         0.0000 
  10782 O(2)       44.0744   71.6613    5.0387 O.2       1 UNK         0.0000 
  10783 N(1)       46.2556   72.2657    5.2264 N.am      1 UNK         0.0000 
  10784 C(1)       46.1561   73.6741    5.1752 C.ar      1 UNK         0.0000 
  10785 C(2)       45.0739   74.3624    4.6269 C.ar      1 UNK         0.0000 
  10786 C(3)       45.0669   75.7542    4.6234 C.ar      1 UNK         0.0000 
  10787 C(4)       46.1369   76.4688    5.1557 C.ar      1 UNK         0.0000 
  10788 C(5)       47.2325   75.7809    5.6759 C.ar      1 UNK         0.0000 
  10789 C(6)       47.2379   74.3933    5.6846 C.ar      1 UNK         0.0000 
  10790 C(7)       45.2648   71.3604    5.1796 C.2       1 UNK         0.0000 
  10791 C(8)       45.7056   69.9263    5.3006 C.3       1 UNK         0.0000 
  10792 H(1)       44.2334   73.8198    4.2122 H         1 UNK         0.0000 
  10793 H(2)       44.2161   76.2706    4.1963 H         1 UNK         0.0000 
  10794 H(3)       48.0757   76.3301    6.0762 H         1 UNK         0.0000 
  10795 H(4)       48.0885   73.8598    6.0906 H         1 UNK         0.0000 
  10796 H(5)       46.9457   78.2127    5.3025 H         1 UNK         0.0000 
  10797 H(6)       47.1815   71.9022    5.3956 H         1 UNK         0.0000 
  10798 H(7)       45.6274   69.4632    4.3514 H         1 UNK         0.0000 
  10799 H(8)       46.7024   69.8281    5.6446 H         1 UNK         0.0000 
  10800 H(9)       45.0252   69.4086    5.9254 H         1 UNK         0.0000 
  10801 O(1)       43.3291   86.0457    6.2473 O.3       1 UNK         0.0000 
  10802 O(2)       41.3313   84.8056   12.2913 O.2       1 UNK         0.0000 
  10803 N(1)       43.5124   84.7550   11.6604 N.am      1 UNK         0.0000 
  10804 C(1)       43.4130   85.1139   10.2975 C.ar      1 UNK         0.0000 
  10805 C(2)       42.3308   85.7998    9.7463 C.ar      1 UNK         0.0000 
  10806 C(3)       42.3238   86.1085    8.3892 C.ar      1 UNK         0.0000 
  10807 C(4)       43.3938   85.7459    7.5752 C.ar      1 UNK         0.0000 
  10808 C(5)       44.4894   85.0875    8.1323 C.ar      1 UNK         0.0000 
  10809 C(6)       44.4947   84.7746    9.4841 C.ar      1 UNK         0.0000 
  10810 C(7)       42.5217   84.6021   12.5539 C.2       1 UNK         0.0000 
  10811 C(8)       42.9625   84.1695   13.9266 C.3       1 UNK         0.0000 
  10812 H(1)       41.4903   86.0854   10.3666 H         1 UNK         0.0000 
  10813 H(2)       41.4730   86.6384    7.9789 H         1 UNK         0.0000 
  10814 H(3)       45.3326   84.8174    7.5086 H         1 UNK         0.0000 
  10815 H(4)       45.3454   84.2615    9.9156 H         1 UNK         0.0000 
  10816 H(5)       44.2026   85.9852    5.8415 H         1 UNK         0.0000 
  10817 H(6)       44.4384   84.5102   11.9779 H         1 UNK         0.0000 
  10818 H(7)       42.8843   84.9940   14.5866 H         1 UNK         0.0000 
  10819 H(8)       43.9593   83.8124   13.9469 H         1 UNK         0.0000 
  10820 H(9)       42.2820   83.4464   14.2946 H         1 UNK         0.0000 
  10821 O(1)       47.6826   74.7242    9.4321 O.3       1 UNK         0.0000 
  10822 O(2)       49.6804   80.8930    9.5479 O.2       1 UNK         0.0000 
  10823 N(1)       47.4993   80.2886    9.3602 N.am      1 UNK         0.0000 
  10824 C(1)       47.5987   78.8801    9.4114 C.ar      1 UNK         0.0000 
  10825 C(2)       48.6809   78.1919    9.9597 C.ar      1 UNK         0.0000 
  10826 C(3)       48.6879   76.8001    9.9633 C.ar      1 UNK         0.0000 
  10827 C(4)       47.6179   76.0855    9.4309 C.ar      1 UNK         0.0000 
  10828 C(5)       46.5223   76.7734    8.9107 C.ar      1 UNK         0.0000 
  10829 C(6)       46.5170   78.1610    8.9020 C.ar      1 UNK         0.0000 
  10830 C(7)       48.4901   81.1939    9.4070 C.2       1 UNK         0.0000 
  10831 C(8)       48.0492   82.6280    9.2860 C.3       1 UNK         0.0000 
  10832 H(1)       49.5214   78.7344   10.3744 H         1 UNK         0.0000 
  10833 H(2)       49.5387   76.2836   10.3903 H         1 UNK         0.0000 
  10834 H(3)       45.6791   76.2242    8.5104 H         1 UNK         0.0000 
  10835 H(4)       45.6664   78.6945    8.4961 H         1 UNK         0.0000 
  10836 H(5)       46.8092   74.3416    9.2841 H         1 UNK         0.0000 
  10837 H(6)       46.5733   80.6520    9.1910 H         1 UNK         0.0000 
  10838 H(7)       48.1275   83.0911   10.2352 H         1 UNK         0.0000 
  10839 H(8)       47.0524   82.7261    8.9420 H         1 UNK         0.0000 
  10840 H(9)       48.7297   83.1457    8.6612 H         1 UNK         0.0000 
  10841 O(1)       37.8625   86.9219   15.5017 O.3       1 UNK         0.0000 
  10842 O(2)       39.8603   88.1620    9.4577 O.2       1 UNK         0.0000 
  10843 N(1)       37.6792   88.2126   10.0886 N.am      1 UNK         0.0000 
  10844 C(1)       37.7786   87.8537   11.4515 C.ar      1 UNK         0.0000 
  10845 C(2)       38.8608   87.1678   12.0027 C.ar      1 UNK         0.0000 
  10846 C(3)       38.8678   86.8590   13.3599 C.ar      1 UNK         0.0000 
  10847 C(4)       37.7978   87.2217   14.1738 C.ar      1 UNK         0.0000 
  10848 C(5)       36.7022   87.8801   13.6167 C.ar      1 UNK         0.0000 
  10849 C(6)       36.6969   88.1930   12.2649 C.ar      1 UNK         0.0000 
  10850 C(7)       38.6700   88.3654    9.1951 C.2       1 UNK         0.0000 
  10851 C(8)       38.2291   88.7981    7.8224 C.3       1 UNK         0.0000 
  10852 H(1)       39.7013   86.8821   11.3824 H         1 UNK         0.0000 
  10853 H(2)       39.7186   86.3291   13.7701 H         1 UNK         0.0000 
  10854 H(3)       35.8590   88.1502   14.2404 H         1 UNK         0.0000 
  10855 H(4)       35.8463   88.7060   11.8334 H         1 UNK         0.0000 
  10856 H(5)       36.9891   86.9824   15.9075 H         1 UNK         0.0000 
  10857 H(6)       36.7532   88.4573    9.7711 H         1 UNK         0.0000 
  10858 H(7)       38.3074   87.9736    7.1624 H         1 UNK         0.0000 
  10859 H(8)       37.2323   89.1552    7.8021 H         1 UNK         0.0000 
  10860 H(9)       38.9096   89.5212    7.4544 H         1 UNK         0.0000 
  10861 O(1)       38.9952   83.5611   12.3169 O.3       1 UNK         0.0000 
  10862 O(2)       36.9974   77.3923   12.2011 O.2       1 UNK         0.0000 
  10863 N(1)       39.1786   77.9967   12.3888 N.am      1 UNK         0.0000 
  10864 C(1)       39.0791   79.4051   12.3376 C.ar      1 UNK         0.0000 
  10865 C(2)       37.9969   80.0933   11.7893 C.ar      1 UNK         0.0000 
  10866 C(3)       37.9899   81.4851   11.7858 C.ar      1 UNK         0.0000 
  10867 C(4)       39.0599   82.1997   12.3181 C.ar      1 UNK         0.0000 
  10868 C(5)       40.1555   81.5118   12.8383 C.ar      1 UNK         0.0000 
  10869 C(6)       40.1609   80.1243   12.8470 C.ar      1 UNK         0.0000 
  10870 C(7)       38.1878   77.0914   12.3420 C.2       1 UNK         0.0000 
  10871 C(8)       38.6286   75.6572   12.4630 C.3       1 UNK         0.0000 
  10872 H(1)       37.1564   79.5508   11.3746 H         1 UNK         0.0000 
  10873 H(2)       37.1391   82.0016   11.3587 H         1 UNK         0.0000 
  10874 H(3)       40.9987   82.0611   13.2386 H         1 UNK         0.0000 
  10875 H(4)       41.0115   79.5908   13.2530 H         1 UNK         0.0000 
  10876 H(5)       39.8687   83.9437   12.4649 H         1 UNK         0.0000 
  10877 H(6)       40.1045   77.6332   12.5580 H         1 UNK         0.0000 
  10878 H(7)       38.5504   75.1941   11.5138 H         1 UNK         0.0000 
  10879 H(8)       39.6254   75.5591   12.8070 H         1 UNK         0.0000 
  10880 H(9)       37.9482   75.1396   13.0878 H         1 UNK         0.0000 
  10881 O(1)       43.3291   91.7766   13.4097 O.3       1 UNK         0.0000 
  10882 O(2)       41.3313   90.5366   19.4537 O.2       1 UNK         0.0000 
  10883 N(1)       43.5124   90.4859   18.8228 N.am      1 UNK         0.0000 
  10884 C(1)       43.4130   90.8448   17.4599 C.ar      1 UNK         0.0000 
  10885 C(2)       42.3308   91.5307   16.9087 C.ar      1 UNK         0.0000 
  10886 C(3)       42.3238   91.8395   15.5516 C.ar      1 UNK         0.0000 
  10887 C(4)       43.3938   91.4768   14.7376 C.ar      1 UNK         0.0000 
  10888 C(5)       44.4894   90.8185   15.2947 C.ar      1 UNK         0.0000 
  10889 C(6)       44.4947   90.5056   16.6465 C.ar      1 UNK         0.0000 
  10890 C(7)       42.5217   90.3331   19.7163 C.2       1 UNK         0.0000 
  10891 C(8)       42.9625   89.9005   21.0890 C.3       1 UNK         0.0000 
  10892 H(1)       41.4903   91.8164   17.5290 H         1 UNK         0.0000 
  10893 H(2)       41.4730   92.3694   15.1413 H         1 UNK         0.0000 
  10894 H(3)       45.3326   90.5484   14.6710 H         1 UNK         0.0000 
  10895 H(4)       45.3454   89.9925   17.0780 H         1 UNK         0.0000 
  10896 H(5)       44.2026   91.7161   13.0039 H         1 UNK         0.0000 
  10897 H(6)       44.4384   90.2412   19.1403 H         1 UNK         0.0000 
  10898 H(7)       42.8843   90.7249   21.7490 H         1 UNK         0.0000 
  10899 H(8)       43.9593   89.5433   21.1093 H         1 UNK         0.0000 
  10900 H(9)       42.2820   89.1774   21.4570 H         1 UNK         0.0000 
  10901 O(1)       47.6826   80.4552   16.5945 O.3       1 UNK         0.0000 
  10902 O(2)       49.6804   86.6239   16.7103 O.2       1 UNK         0.0000 
  10903 N(1)       47.4993   86.0195   16.5226 N.am      1 UNK         0.0000 
  10904 C(1)       47.5987   84.6111   16.5738 C.ar      1 UNK         0.0000 
  10905 C(2)       48.6809   83.9229   17.1221 C.ar      1 UNK         0.0000 
  10906 C(3)       48.6879   82.5311   17.1257 C.ar      1 UNK         0.0000 
  10907 C(4)       47.6179   81.8165   16.5933 C.ar      1 UNK         0.0000 
  10908 C(5)       46.5223   82.5044   16.0731 C.ar      1 UNK         0.0000 
  10909 C(6)       46.5170   83.8919   16.0644 C.ar      1 UNK         0.0000 
  10910 C(7)       48.4901   86.9248   16.5694 C.2       1 UNK         0.0000 
  10911 C(8)       48.0492   88.3590   16.4484 C.3       1 UNK         0.0000 
  10912 H(1)       49.5214   84.4654   17.5368 H         1 UNK         0.0000 
  10913 H(2)       49.5387   82.0146   17.5527 H         1 UNK         0.0000 
  10914 H(3)       45.6791   81.9551   15.6728 H         1 UNK         0.0000 
  10915 H(4)       45.6664   84.4254   15.6585 H         1 UNK         0.0000 
  10916 H(5)       46.8092   80.0725   16.4465 H         1 UNK         0.0000 
  10917 H(6)       46.5733   86.3830   16.3534 H         1 UNK         0.0000 
  10918 H(7)       48.1275   88.8221   17.3976 H         1 UNK         0.0000 
  10919 H(8)       47.0524   88.4571   16.1044 H         1 UNK         0.0000 
  10920 H(9)       48.7297   88.8766   15.8236 H         1 UNK         0.0000 
  10921 O(1)       43.3487   77.9705   22.6641 O.3       1 UNK         0.0000 
  10922 O(2)       45.3465   79.2106   16.6201 O.2       1 UNK         0.0000 
  10923 N(1)       43.1654   79.2612   17.2510 N.am      1 UNK         0.0000 
  10924 C(1)       43.2648   78.9023   18.6139 C.ar      1 UNK         0.0000 
  10925 C(2)       44.3470   78.2164   19.1651 C.ar      1 UNK         0.0000 
  10926 C(3)       44.3540   77.9077   20.5223 C.ar      1 UNK         0.0000 
  10927 C(4)       43.2840   78.2703   21.3362 C.ar      1 UNK         0.0000 
  10928 C(5)       42.1884   78.9287   20.7791 C.ar      1 UNK         0.0000 
  10929 C(6)       42.1831   79.2416   19.4273 C.ar      1 UNK         0.0000 
  10930 C(7)       44.1562   79.4141   16.3575 C.2       1 UNK         0.0000 
  10931 C(8)       43.7153   79.8467   14.9848 C.3       1 UNK         0.0000 
  10932 H(1)       45.1875   77.9308   18.5448 H         1 UNK         0.0000 
  10933 H(2)       45.2048   77.3778   20.9325 H         1 UNK         0.0000 
  10934 H(3)       41.3452   79.1988   21.4028 H         1 UNK         0.0000 
  10935 H(4)       41.3325   79.7547   18.9958 H         1 UNK         0.0000 
  10936 H(5)       42.4753   78.0310   23.0699 H         1 UNK         0.0000 
  10937 H(6)       42.2394   79.5060   16.9335 H         1 UNK         0.0000 
  10938 H(7)       43.7936   79.0222   14.3248 H         1 UNK         0.0000 
  10939 H(8)       42.7185   80.2038   14.9645 H         1 UNK         0.0000 
  10940 H(9)       44.3958   80.5698   14.6168 H         1 UNK         0.0000 
  10941 O(1)       46.0722   89.2920   19.4793 O.3       1 UNK         0.0000 
  10942 O(2)       44.0744   83.1232   19.3635 O.2       1 UNK         0.0000 
  10943 N(1)       46.2556   83.7276   19.5512 N.am      1 UNK         0.0000 
  10944 C(1)       46.1561   85.1361   19.5000 C.ar      1 UNK         0.0000 
  10945 C(2)       45.0739   85.8243   18.9517 C.ar      1 UNK         0.0000 
  10946 C(3)       45.0669   87.2161   18.9482 C.ar      1 UNK         0.0000 
  10947 C(4)       46.1369   87.9307   19.4805 C.ar      1 UNK         0.0000 
  10948 C(5)       47.2325   87.2428   20.0007 C.ar      1 UNK         0.0000 
  10949 C(6)       47.2379   85.8552   20.0094 C.ar      1 UNK         0.0000 
  10950 C(7)       45.2648   82.8223   19.5044 C.2       1 UNK         0.0000 
  10951 C(8)       45.7056   81.3882   19.6254 C.3       1 UNK         0.0000 
  10952 H(1)       44.2334   85.2818   18.5370 H         1 UNK         0.0000 
  10953 H(2)       44.2161   87.7326   18.5211 H         1 UNK         0.0000 
  10954 H(3)       48.0757   87.7920   20.4010 H         1 UNK         0.0000 
  10955 H(4)       48.0885   85.3217   20.4154 H         1 UNK         0.0000 
  10956 H(5)       46.9457   89.6746   19.6273 H         1 UNK         0.0000 
  10957 H(6)       47.1815   83.3642   19.7204 H         1 UNK         0.0000 
  10958 H(7)       45.6274   80.9251   18.6762 H         1 UNK         0.0000 
  10959 H(8)       46.7024   81.2901   19.9694 H         1 UNK         0.0000 
  10960 H(9)       45.0252   80.8705   20.2502 H         1 UNK         0.0000 
  10961 O(1)       41.7383   82.8253   20.5721 O.3       1 UNK         0.0000 
  10962 O(2)       39.7405   81.5852   26.6161 O.2       1 UNK         0.0000 
  10963 N(1)       41.9217   81.5346   25.9852 N.am      1 UNK         0.0000 
  10964 C(1)       41.8222   81.8935   24.6223 C.ar      1 UNK         0.0000 
  10965 C(2)       40.7401   82.5794   24.0711 C.ar      1 UNK         0.0000 
  10966 C(3)       40.7330   82.8881   22.7140 C.ar      1 UNK         0.0000 
  10967 C(4)       41.8030   82.5255   21.9000 C.ar      1 UNK         0.0000 
  10968 C(5)       42.8987   81.8671   22.4571 C.ar      1 UNK         0.0000 
  10969 C(6)       42.9040   81.5542   23.8089 C.ar      1 UNK         0.0000 
  10970 C(7)       40.9309   81.3817   26.8787 C.2       1 UNK         0.0000 
  10971 C(8)       41.3717   80.9491   28.2514 C.3       1 UNK         0.0000 
  10972 H(1)       39.8995   82.8650   24.6914 H         1 UNK         0.0000 
  10973 H(2)       39.8822   83.4180   22.3037 H         1 UNK         0.0000 
  10974 H(3)       43.7418   81.5970   21.8334 H         1 UNK         0.0000 
  10975 H(4)       43.7546   81.0412   24.2404 H         1 UNK         0.0000 
  10976 H(5)       42.6118   82.7648   20.1663 H         1 UNK         0.0000 
  10977 H(6)       42.8476   81.2898   26.3027 H         1 UNK         0.0000 
  10978 H(7)       41.2935   81.7736   28.9114 H         1 UNK         0.0000 
  10979 H(8)       42.3685   80.5920   28.2717 H         1 UNK         0.0000 
  10980 H(9)       40.6913   80.2260   28.6194 H         1 UNK         0.0000 
  10981 O(1)       40.6056   86.1861   23.7569 O.3       1 UNK         0.0000 
  10982 O(2)       42.6034   92.3549   23.8727 O.2       1 UNK         0.0000 
  10983 N(1)       40.4223   91.7505   23.6850 N.am      1 UNK         0.0000 
  10984 C(1)       40.5217   90.3421   23.7362 C.ar      1 UNK         0.0000 
  10985 C(2)       41.6039   89.6538   24.2845 C.ar      1 UNK         0.0000 
  10986 C(3)       41.6109   88.2620   24.2881 C.ar      1 UNK         0.0000 
  10987 C(4)       40.5409   87.5474   23.7557 C.ar      1 UNK         0.0000 
  10988 C(5)       39.4453   88.2353   23.2355 C.ar      1 UNK         0.0000 
  10989 C(6)       39.4400   89.6229   23.2268 C.ar      1 UNK         0.0000 
  10990 C(7)       41.4131   92.6558   23.7318 C.2       1 UNK         0.0000 
  10991 C(8)       40.9722   94.0899   23.6108 C.3       1 UNK         0.0000 
  10992 H(1)       42.4444   90.1964   24.6992 H         1 UNK         0.0000 
  10993 H(2)       42.4617   87.7456   24.7151 H         1 UNK         0.0000 
  10994 H(3)       38.6021   87.6861   22.8352 H         1 UNK         0.0000 
  10995 H(4)       38.5894   90.1564   22.8209 H         1 UNK         0.0000 
  10996 H(5)       39.7322   85.8035   23.6089 H         1 UNK         0.0000 
  10997 H(6)       39.4963   92.1140   23.5158 H         1 UNK         0.0000 
  10998 H(7)       41.0505   94.5530   24.5600 H         1 UNK         0.0000 
  10999 H(8)       39.9754   94.1881   23.2668 H         1 UNK         0.0000 
  11000 H(9)       41.6527   94.6076   22.9860 H         1 UNK         0.0000 
  11001 O(1)       44.9395   81.1909    8.3393 O.3       1 UNK         0.0000 
  11002 O(2)       46.9373   82.4310    2.2953 O.2       1 UNK         0.0000 
  11003 N(1)       44.7562   82.4816    2.9262 N.am      1 UNK         0.0000 
  11004 C(1)       44.8556   82.1227    4.2891 C.ar      1 UNK         0.0000 
  11005 C(2)       45.9378   81.4368    4.8403 C.ar      1 UNK         0.0000 
  11006 C(3)       45.9448   81.1281    6.1975 C.ar      1 UNK         0.0000 
  11007 C(4)       44.8748   81.4907    7.0114 C.ar      1 UNK         0.0000 
  11008 C(5)       43.7792   82.1491    6.4543 C.ar      1 UNK         0.0000 
  11009 C(6)       43.7739   82.4620    5.1025 C.ar      1 UNK         0.0000 
  11010 C(7)       45.7469   82.6345    2.0327 C.2       1 UNK         0.0000 
  11011 C(8)       45.3061   83.0671    0.6600 C.3       1 UNK         0.0000 
  11012 H(1)       46.7783   81.1512    4.2200 H         1 UNK         0.0000 
  11013 H(2)       46.7956   80.5982    6.6077 H         1 UNK         0.0000 
  11014 H(3)       42.9360   82.4192    7.0780 H         1 UNK         0.0000 
  11015 H(4)       42.9233   82.9751    4.6710 H         1 UNK         0.0000 
  11016 H(5)       44.0661   81.2514    8.7451 H         1 UNK         0.0000 
  11017 H(6)       43.8302   82.7264    2.6087 H         1 UNK         0.0000 
  11018 H(7)       45.3844   82.2426    0.0000 H         1 UNK         0.0000 
  11019 H(8)       44.3093   83.4242    0.6397 H         1 UNK         0.0000 
  11020 H(9)       45.9866   83.7902    0.2920 H         1 UNK         0.0000 
  11021 O(1)       47.6630   92.5124    5.1545 O.3       1 UNK         0.0000 
  11022 O(2)       45.6652   86.3436    5.0387 O.2       1 UNK         0.0000 
  11023 N(1)       47.8463   86.9480    5.2264 N.am      1 UNK         0.0000 
  11024 C(1)       47.7469   88.3565    5.1752 C.ar      1 UNK         0.0000 
  11025 C(2)       46.6647   89.0447    4.6269 C.ar      1 UNK         0.0000 
  11026 C(3)       46.6577   90.4365    4.6234 C.ar      1 UNK         0.0000 
  11027 C(4)       47.7277   91.1511    5.1557 C.ar      1 UNK         0.0000 
  11028 C(5)       48.8233   90.4632    5.6759 C.ar      1 UNK         0.0000 
  11029 C(6)       48.8286   89.0756    5.6846 C.ar      1 UNK         0.0000 
  11030 C(7)       46.8556   86.0427    5.1796 C.2       1 UNK         0.0000 
  11031 C(8)       47.2964   84.6086    5.3006 C.3       1 UNK         0.0000 
  11032 H(1)       45.8242   88.5022    4.2122 H         1 UNK         0.0000 
  11033 H(2)       45.8069   90.9530    4.1963 H         1 UNK         0.0000 
  11034 H(3)       49.6665   91.0124    6.0762 H         1 UNK         0.0000 
  11035 H(4)       49.6793   88.5421    6.0906 H         1 UNK         0.0000 
  11036 H(5)       48.5364   92.8950    5.3025 H         1 UNK         0.0000 
  11037 H(6)       48.7723   86.5846    5.3956 H         1 UNK         0.0000 
  11038 H(7)       47.2182   84.1455    4.3514 H         1 UNK         0.0000 
  11039 H(8)       48.2932   84.5105    5.6446 H         1 UNK         0.0000 
  11040 H(9)       46.6159   84.0909    5.9254 H         1 UNK         0.0000 
  11041 O(1)       44.9199  100.7280    6.2473 O.3       1 UNK         0.0000 
  11042 O(2)       42.9221   99.4879   12.2913 O.2       1 UNK         0.0000 
  11043 N(1)       45.1032   99.4373   11.6604 N.am      1 UNK         0.0000 
  11044 C(1)       45.0038   99.7962   10.2975 C.ar      1 UNK         0.0000 
  11045 C(2)       43.9216  100.4821    9.7463 C.ar      1 UNK         0.0000 
  11046 C(3)       43.9146  100.7909    8.3892 C.ar      1 UNK         0.0000 
  11047 C(4)       44.9846  100.4282    7.5752 C.ar      1 UNK         0.0000 
  11048 C(5)       46.0802   99.7698    8.1323 C.ar      1 UNK         0.0000 
  11049 C(6)       46.0855   99.4569    9.4841 C.ar      1 UNK         0.0000 
  11050 C(7)       44.1125   99.2845   12.5539 C.2       1 UNK         0.0000 
  11051 C(8)       44.5533   98.8518   13.9266 C.3       1 UNK         0.0000 
  11052 H(1)       43.0811  100.7678   10.3666 H         1 UNK         0.0000 
  11053 H(2)       43.0638  101.3208    7.9789 H         1 UNK         0.0000 
  11054 H(3)       46.9234   99.4997    7.5086 H         1 UNK         0.0000 
  11055 H(4)       46.9361   98.9439    9.9156 H         1 UNK         0.0000 
  11056 H(5)       45.7933  100.6675    5.8415 H         1 UNK         0.0000 
  11057 H(6)       46.0292   99.1926   11.9779 H         1 UNK         0.0000 
  11058 H(7)       44.4750   99.6763   14.5866 H         1 UNK         0.0000 
  11059 H(8)       45.5501   98.4947   13.9469 H         1 UNK         0.0000 
  11060 H(9)       43.8728   98.1287   14.2946 H         1 UNK         0.0000 
  11061 O(1)       49.2734   89.4065    9.4321 O.3       1 UNK         0.0000 
  11062 O(2)       51.2712   95.5753    9.5479 O.2       1 UNK         0.0000 
  11063 N(1)       49.0901   94.9709    9.3602 N.am      1 UNK         0.0000 
  11064 C(1)       49.1895   93.5625    9.4114 C.ar      1 UNK         0.0000 
  11065 C(2)       50.2717   92.8742    9.9597 C.ar      1 UNK         0.0000 
  11066 C(3)       50.2787   91.4824    9.9633 C.ar      1 UNK         0.0000 
  11067 C(4)       49.2087   90.7678    9.4309 C.ar      1 UNK         0.0000 
  11068 C(5)       48.1131   91.4557    8.9107 C.ar      1 UNK         0.0000 
  11069 C(6)       48.1078   92.8433    8.9020 C.ar      1 UNK         0.0000 
  11070 C(7)       50.0808   95.8762    9.4070 C.2       1 UNK         0.0000 
  11071 C(8)       49.6400   97.3103    9.2860 C.3       1 UNK         0.0000 
  11072 H(1)       51.1122   93.4168   10.3744 H         1 UNK         0.0000 
  11073 H(2)       51.1295   90.9660   10.3903 H         1 UNK         0.0000 
  11074 H(3)       47.2699   90.9065    8.5104 H         1 UNK         0.0000 
  11075 H(4)       47.2572   93.3768    8.4961 H         1 UNK         0.0000 
  11076 H(5)       48.4000   89.0239    9.2841 H         1 UNK         0.0000 
  11077 H(6)       48.1641   95.3344    9.1910 H         1 UNK         0.0000 
  11078 H(7)       49.7182   97.7734   10.2352 H         1 UNK         0.0000 
  11079 H(8)       48.6432   97.4085    8.9420 H         1 UNK         0.0000 
  11080 H(9)       50.3205   97.8280    8.6612 H         1 UNK         0.0000 
  11081 O(1)       39.4533  101.6042   15.5017 O.3       1 UNK         0.0000 
  11082 O(2)       41.4511  102.8443    9.4577 O.2       1 UNK         0.0000 
  11083 N(1)       39.2700  102.8949   10.0886 N.am      1 UNK         0.0000 
  11084 C(1)       39.3694  102.5360   11.4515 C.ar      1 UNK         0.0000 
  11085 C(2)       40.4516  101.8501   12.0027 C.ar      1 UNK         0.0000 
  11086 C(3)       40.4586  101.5414   13.3599 C.ar      1 UNK         0.0000 
  11087 C(4)       39.3886  101.9040   14.1738 C.ar      1 UNK         0.0000 
  11088 C(5)       38.2930  102.5624   13.6167 C.ar      1 UNK         0.0000 
  11089 C(6)       38.2877  102.8753   12.2649 C.ar      1 UNK         0.0000 
  11090 C(7)       40.2607  103.0478    9.1951 C.2       1 UNK         0.0000 
  11091 C(8)       39.8199  103.4804    7.8224 C.3       1 UNK         0.0000 
  11092 H(1)       41.2921  101.5645   11.3824 H         1 UNK         0.0000 
  11093 H(2)       41.3094  101.0115   13.7701 H         1 UNK         0.0000 
  11094 H(3)       37.4498  102.8325   14.2404 H         1 UNK         0.0000 
  11095 H(4)       37.4370  103.3883   11.8334 H         1 UNK         0.0000 
  11096 H(5)       38.5798  101.6647   15.9075 H         1 UNK         0.0000 
  11097 H(6)       38.3440  103.1397    9.7711 H         1 UNK         0.0000 
  11098 H(7)       39.8981  102.6559    7.1624 H         1 UNK         0.0000 
  11099 H(8)       38.8231  103.8375    7.8021 H         1 UNK         0.0000 
  11100 H(9)       40.5004  104.2035    7.4544 H         1 UNK         0.0000 
  11101 O(1)       40.5860   98.2434   12.3169 O.3       1 UNK         0.0000 
  11102 O(2)       38.5882   92.0746   12.2011 O.2       1 UNK         0.0000 
  11103 N(1)       40.7693   92.6790   12.3888 N.am      1 UNK         0.0000 
  11104 C(1)       40.6699   94.0874   12.3376 C.ar      1 UNK         0.0000 
  11105 C(2)       39.5877   94.7757   11.7893 C.ar      1 UNK         0.0000 
  11106 C(3)       39.5807   96.1675   11.7858 C.ar      1 UNK         0.0000 
  11107 C(4)       40.6507   96.8821   12.3181 C.ar      1 UNK         0.0000 
  11108 C(5)       41.7463   96.1941   12.8383 C.ar      1 UNK         0.0000 
  11109 C(6)       41.7516   94.8066   12.8470 C.ar      1 UNK         0.0000 
  11110 C(7)       39.7786   91.7737   12.3420 C.2       1 UNK         0.0000 
  11111 C(8)       40.2194   90.3396   12.4630 C.3       1 UNK         0.0000 
  11112 H(1)       38.7472   94.2331   11.3746 H         1 UNK         0.0000 
  11113 H(2)       38.7299   96.6839   11.3587 H         1 UNK         0.0000 
  11114 H(3)       42.5895   96.7434   13.2386 H         1 UNK         0.0000 
  11115 H(4)       42.6023   94.2731   13.2530 H         1 UNK         0.0000 
  11116 H(5)       41.4594   98.6260   12.4649 H         1 UNK         0.0000 
  11117 H(6)       41.6953   92.3155   12.5580 H         1 UNK         0.0000 
  11118 H(7)       40.1412   89.8765   11.5138 H         1 UNK         0.0000 
  11119 H(8)       41.2162   90.2414   12.8070 H         1 UNK         0.0000 
  11120 H(9)       39.5389   89.8219   13.0878 H         1 UNK         0.0000 
  11121 O(1)       44.9199  106.4590   13.4097 O.3       1 UNK         0.0000 
  11122 O(2)       42.9221  105.2189   19.4537 O.2       1 UNK         0.0000 
  11123 N(1)       45.1032  105.1683   18.8228 N.am      1 UNK         0.0000 
  11124 C(1)       45.0038  105.5272   17.4599 C.ar      1 UNK         0.0000 
  11125 C(2)       43.9216  106.2131   16.9087 C.ar      1 UNK         0.0000 
  11126 C(3)       43.9146  106.5218   15.5516 C.ar      1 UNK         0.0000 
  11127 C(4)       44.9846  106.1592   14.7376 C.ar      1 UNK         0.0000 
  11128 C(5)       46.0802  105.5008   15.2947 C.ar      1 UNK         0.0000 
  11129 C(6)       46.0855  105.1879   16.6465 C.ar      1 UNK         0.0000 
  11130 C(7)       44.1125  105.0154   19.7163 C.2       1 UNK         0.0000 
  11131 C(8)       44.5533  104.5828   21.0890 C.3       1 UNK         0.0000 
  11132 H(1)       43.0811  106.4987   17.5290 H         1 UNK         0.0000 
  11133 H(2)       43.0638  107.0517   15.1413 H         1 UNK         0.0000 
  11134 H(3)       46.9234  105.2307   14.6710 H         1 UNK         0.0000 
  11135 H(4)       46.9361  104.6748   17.0780 H         1 UNK         0.0000 
  11136 H(5)       45.7933  106.3985   13.0039 H         1 UNK         0.0000 
  11137 H(6)       46.0292  104.9235   19.1403 H         1 UNK         0.0000 
  11138 H(7)       44.4750  105.4073   21.7490 H         1 UNK         0.0000 
  11139 H(8)       45.5501  104.2257   21.1093 H         1 UNK         0.0000 
  11140 H(9)       43.8728  103.8597   21.4570 H         1 UNK         0.0000 
  11141 O(1)       49.2734   95.1375   16.5945 O.3       1 UNK         0.0000 
  11142 O(2)       51.2712  101.3063   16.7103 O.2       1 UNK         0.0000 
  11143 N(1)       49.0901  100.7019   16.5226 N.am      1 UNK         0.0000 
  11144 C(1)       49.1895   99.2934   16.5738 C.ar      1 UNK         0.0000 
  11145 C(2)       50.2717   98.6052   17.1221 C.ar      1 UNK         0.0000 
  11146 C(3)       50.2787   97.2134   17.1257 C.ar      1 UNK         0.0000 
  11147 C(4)       49.2087   96.4988   16.5933 C.ar      1 UNK         0.0000 
  11148 C(5)       48.1131   97.1867   16.0731 C.ar      1 UNK         0.0000 
  11149 C(6)       48.1078   98.5743   16.0644 C.ar      1 UNK         0.0000 
  11150 C(7)       50.0808  101.6072   16.5694 C.2       1 UNK         0.0000 
  11151 C(8)       49.6400  103.0413   16.4484 C.3       1 UNK         0.0000 
  11152 H(1)       51.1122   99.1477   17.5368 H         1 UNK         0.0000 
  11153 H(2)       51.1295   96.6969   17.5527 H         1 UNK         0.0000 
  11154 H(3)       47.2699   96.6375   15.6728 H         1 UNK         0.0000 
  11155 H(4)       47.2572   99.1078   15.6585 H         1 UNK         0.0000 
  11156 H(5)       48.4000   94.7549   16.4465 H         1 UNK         0.0000 
  11157 H(6)       48.1641  101.0653   16.3534 H         1 UNK         0.0000 
  11158 H(7)       49.7182  103.5044   17.3976 H         1 UNK         0.0000 
  11159 H(8)       48.6432  103.1394   16.1044 H         1 UNK         0.0000 
  11160 H(9)       50.3205  103.5590   15.8236 H         1 UNK         0.0000 
  11161 O(1)       44.9395   92.6529   22.6641 O.3       1 UNK         0.0000 
  11162 O(2)       46.9373   93.8929   16.6201 O.2       1 UNK         0.0000 
  11163 N(1)       44.7562   93.9436   17.2510 N.am      1 UNK         0.0000 
  11164 C(1)       44.8556   93.5847   18.6139 C.ar      1 UNK         0.0000 
  11165 C(2)       45.9378   92.8988   19.1651 C.ar      1 UNK         0.0000 
  11166 C(3)       45.9448   92.5900   20.5223 C.ar      1 UNK         0.0000 
  11167 C(4)       44.8748   92.9527   21.3362 C.ar      1 UNK         0.0000 
  11168 C(5)       43.7792   93.6110   20.7791 C.ar      1 UNK         0.0000 
  11169 C(6)       43.7739   93.9239   19.4273 C.ar      1 UNK         0.0000 
  11170 C(7)       45.7469   94.0964   16.3575 C.2       1 UNK         0.0000 
  11171 C(8)       45.3061   94.5290   14.9848 C.3       1 UNK         0.0000 
  11172 H(1)       46.7783   92.6131   18.5448 H         1 UNK         0.0000 
  11173 H(2)       46.7956   92.0601   20.9325 H         1 UNK         0.0000 
  11174 H(3)       42.9360   93.8811   21.4028 H         1 UNK         0.0000 
  11175 H(4)       42.9233   94.4370   18.9958 H         1 UNK         0.0000 
  11176 H(5)       44.0661   92.7134   23.0699 H         1 UNK         0.0000 
  11177 H(6)       43.8302   94.1883   16.9335 H         1 UNK         0.0000 
  11178 H(7)       45.3844   93.7046   14.3248 H         1 UNK         0.0000 
  11179 H(8)       44.3093   94.8862   14.9645 H         1 UNK         0.0000 
  11180 H(9)       45.9866   95.2521   14.6168 H         1 UNK         0.0000 
  11181 O(1)       47.6630  103.9743   19.4793 O.3       1 UNK         0.0000 
  11182 O(2)       45.6652   97.8056   19.3635 O.2       1 UNK         0.0000 
  11183 N(1)       47.8463   98.4100   19.5512 N.am      1 UNK         0.0000 
  11184 C(1)       47.7469   99.8184   19.5000 C.ar      1 UNK         0.0000 
  11185 C(2)       46.6647  100.5066   18.9517 C.ar      1 UNK         0.0000 
  11186 C(3)       46.6577  101.8984   18.9482 C.ar      1 UNK         0.0000 
  11187 C(4)       47.7277  102.6130   19.4805 C.ar      1 UNK         0.0000 
  11188 C(5)       48.8233  101.9251   20.0007 C.ar      1 UNK         0.0000 
  11189 C(6)       48.8286  100.5376   20.0094 C.ar      1 UNK         0.0000 
  11190 C(7)       46.8556   97.5047   19.5044 C.2       1 UNK         0.0000 
  11191 C(8)       47.2964   96.0705   19.6254 C.3       1 UNK         0.0000 
  11192 H(1)       45.8242   99.9641   18.5370 H         1 UNK         0.0000 
  11193 H(2)       45.8069  102.4149   18.5211 H         1 UNK         0.0000 
  11194 H(3)       49.6665  102.4744   20.4010 H         1 UNK         0.0000 
  11195 H(4)       49.6793  100.0041   20.4154 H         1 UNK         0.0000 
  11196 H(5)       48.5364  104.3570   19.6273 H         1 UNK         0.0000 
  11197 H(6)       48.7723   98.0465   19.7204 H         1 UNK         0.0000 
  11198 H(7)       47.2182   95.6074   18.6762 H         1 UNK         0.0000 
  11199 H(8)       48.2932   95.9724   19.9694 H         1 UNK         0.0000 
  11200 H(9)       46.6159   95.5529   20.2502 H         1 UNK         0.0000 
  11201 O(1)       43.3291   97.5076   20.5721 O.3       1 UNK         0.0000 
  11202 O(2)       41.3313   96.2675   26.6161 O.2       1 UNK         0.0000 
  11203 N(1)       43.5124   96.2169   25.9852 N.am      1 UNK         0.0000 
  11204 C(1)       43.4130   96.5758   24.6223 C.ar      1 UNK         0.0000 
  11205 C(2)       42.3308   97.2617   24.0711 C.ar      1 UNK         0.0000 
  11206 C(3)       42.3238   97.5705   22.7140 C.ar      1 UNK         0.0000 
  11207 C(4)       43.3938   97.2078   21.9000 C.ar      1 UNK         0.0000 
  11208 C(5)       44.4894   96.5494   22.4571 C.ar      1 UNK         0.0000 
  11209 C(6)       44.4947   96.2365   23.8089 C.ar      1 UNK         0.0000 
  11210 C(7)       42.5217   96.0641   26.8787 C.2       1 UNK         0.0000 
  11211 C(8)       42.9625   95.6314   28.2514 C.3       1 UNK         0.0000 
  11212 H(1)       41.4903   97.5474   24.6914 H         1 UNK         0.0000 
  11213 H(2)       41.4730   98.1004   22.3037 H         1 UNK         0.0000 
  11214 H(3)       45.3326   96.2793   21.8334 H         1 UNK         0.0000 
  11215 H(4)       45.3454   95.7235   24.2404 H         1 UNK         0.0000 
  11216 H(5)       44.2026   97.4471   20.1663 H         1 UNK         0.0000 
  11217 H(6)       44.4384   95.9722   26.3027 H         1 UNK         0.0000 
  11218 H(7)       42.8843   96.4559   28.9114 H         1 UNK         0.0000 
  11219 H(8)       43.9593   95.2743   28.2717 H         1 UNK         0.0000 
  11220 H(9)       42.2820   94.9083   28.6194 H         1 UNK         0.0000 
  11221 O(1)       42.1964  100.8684   23.7569 O.3       1 UNK         0.0000 
  11222 O(2)       44.1942  107.0372   23.8727 O.2       1 UNK         0.0000 
  11223 N(1)       42.0131  106.4328   23.6850 N.am      1 UNK         0.0000 
  11224 C(1)       42.1125  105.0244   23.7362 C.ar      1 UNK         0.0000 
  11225 C(2)       43.1947  104.3362   24.2845 C.ar      1 UNK         0.0000 
  11226 C(3)       43.2017  102.9444   24.2881 C.ar      1 UNK         0.0000 
  11227 C(4)       42.1317  102.2298   23.7557 C.ar      1 UNK         0.0000 
  11228 C(5)       41.0361  102.9177   23.2355 C.ar      1 UNK         0.0000 
  11229 C(6)       41.0308  104.3052   23.2268 C.ar      1 UNK         0.0000 
  11230 C(7)       43.0038  107.3381   23.7318 C.2       1 UNK         0.0000 
  11231 C(8)       42.5630  108.7723   23.6108 C.3       1 UNK         0.0000 
  11232 H(1)       44.0352  104.8787   24.6992 H         1 UNK         0.0000 
  11233 H(2)       44.0525  102.4279   24.7151 H         1 UNK         0.0000 
  11234 H(3)       40.1929  102.3684   22.8352 H         1 UNK         0.0000 
  11235 H(4)       40.1801  104.8387   22.8209 H         1 UNK         0.0000 
  11236 H(5)       41.3230  100.4858   23.6089 H         1 UNK         0.0000 
  11237 H(6)       41.0871  106.7963   23.5158 H         1 UNK         0.0000 
  11238 H(7)       42.6412  109.2354   24.5600 H         1 UNK         0.0000 
  11239 H(8)       41.5662  108.8704   23.2668 H         1 UNK         0.0000 
  11240 H(9)       43.2435  109.2899   22.9860 H         1 UNK         0.0000 
  11241 O(1)       46.5303   95.8732    8.3393 O.3       1 UNK         0.0000 
  11242 O(2)       48.5281   97.1133    2.2953 O.2       1 UNK         0.0000 
  11243 N(1)       46.3470   97.1640    2.9262 N.am      1 UNK         0.0000 
  11244 C(1)       46.4464   96.8050    4.2891 C.ar      1 UNK         0.0000 
  11245 C(2)       47.5286   96.1192    4.8403 C.ar      1 UNK         0.0000 
  11246 C(3)       47.5356   95.8104    6.1975 C.ar      1 UNK         0.0000 
  11247 C(4)       46.4656   96.1731    7.0114 C.ar      1 UNK         0.0000 
  11248 C(5)       45.3700   96.8314    6.4543 C.ar      1 UNK         0.0000 
  11249 C(6)       45.3647   97.1443    5.1025 C.ar      1 UNK         0.0000 
  11250 C(7)       47.3377   97.3168    2.0327 C.2       1 UNK         0.0000 
  11251 C(8)       46.8969   97.7494    0.6600 C.3       1 UNK         0.0000 
  11252 H(1)       48.3691   95.8335    4.2200 H         1 UNK         0.0000 
  11253 H(2)       48.3864   95.2805    6.6077 H         1 UNK         0.0000 
  11254 H(3)       44.5268   97.1015    7.0780 H         1 UNK         0.0000 
  11255 H(4)       44.5140   97.6574    4.6710 H         1 UNK         0.0000 
  11256 H(5)       45.6568   95.9338    8.7451 H         1 UNK         0.0000 
  11257 H(6)       45.4210   97.4087    2.6087 H         1 UNK         0.0000 
  11258 H(7)       46.9751   96.9250    0.0000 H         1 UNK         0.0000 
  11259 H(8)       45.9001   98.1066    0.6397 H         1 UNK         0.0000 
  11260 H(9)       47.5774   98.4725    0.2920 H         1 UNK         0.0000 
  11261 O(1)       49.2538  107.1947    5.1545 O.3       1 UNK         0.0000 
  11262 O(2)       47.2560  101.0260    5.0387 O.2       1 UNK         0.0000 
  11263 N(1)       49.4371  101.6304    5.2264 N.am      1 UNK         0.0000 
  11264 C(1)       49.3377  103.0388    5.1752 C.ar      1 UNK         0.0000 
  11265 C(2)       48.2555  103.7270    4.6269 C.ar      1 UNK         0.0000 
  11266 C(3)       48.2485  105.1188    4.6234 C.ar      1 UNK         0.0000 
  11267 C(4)       49.3185  105.8334    5.1557 C.ar      1 UNK         0.0000 
  11268 C(5)       50.4141  105.1455    5.6759 C.ar      1 UNK         0.0000 
  11269 C(6)       50.4194  103.7580    5.6846 C.ar      1 UNK         0.0000 
  11270 C(7)       48.4463  100.7251    5.1796 C.2       1 UNK         0.0000 
  11271 C(8)       48.8872   99.2909    5.3006 C.3       1 UNK         0.0000 
  11272 H(1)       47.4150  103.1845    4.2122 H         1 UNK         0.0000 
  11273 H(2)       47.3977  105.6353    4.1963 H         1 UNK         0.0000 
  11274 H(3)       51.2573  105.6948    6.0762 H         1 UNK         0.0000 
  11275 H(4)       51.2700  103.2245    6.0906 H         1 UNK         0.0000 
  11276 H(5)       50.1272  107.5773    5.3025 H         1 UNK         0.0000 
  11277 H(6)       50.3631  101.2669    5.3956 H         1 UNK         0.0000 
  11278 H(7)       48.8089   98.8278    4.3514 H         1 UNK         0.0000 
  11279 H(8)       49.8840   99.1928    5.6446 H         1 UNK         0.0000 
  11280 H(9)       48.2067   98.7733    5.9254 H         1 UNK         0.0000 
  11281 O(1)       46.5107  115.4103    6.2473 O.3       1 UNK         0.0000 
  11282 O(2)       44.5129  114.1703   12.2913 O.2       1 UNK         0.0000 
  11283 N(1)       46.6940  114.1196   11.6604 N.am      1 UNK         0.0000 
  11284 C(1)       46.5946  114.4785   10.2975 C.ar      1 UNK         0.0000 
  11285 C(2)       45.5124  115.1644    9.7463 C.ar      1 UNK         0.0000 
  11286 C(3)       45.5054  115.4732    8.3892 C.ar      1 UNK         0.0000 
  11287 C(4)       46.5754  115.1105    7.5752 C.ar      1 UNK         0.0000 
  11288 C(5)       47.6710  114.4521    8.1323 C.ar      1 UNK         0.0000 
  11289 C(6)       47.6763  114.1393    9.4841 C.ar      1 UNK         0.0000 
  11290 C(7)       45.7032  113.9668   12.5539 C.2       1 UNK         0.0000 
  11291 C(8)       46.1441  113.5342   13.9266 C.3       1 UNK         0.0000 
  11292 H(1)       44.6719  115.4501   10.3666 H         1 UNK         0.0000 
  11293 H(2)       44.6546  116.0031    7.9789 H         1 UNK         0.0000 
  11294 H(3)       48.5142  114.1821    7.5086 H         1 UNK         0.0000 
  11295 H(4)       48.5269  113.6262    9.9156 H         1 UNK         0.0000 
  11296 H(5)       47.3841  115.3498    5.8415 H         1 UNK         0.0000 
  11297 H(6)       47.6200  113.8749   11.9779 H         1 UNK         0.0000 
  11298 H(7)       46.0658  114.3586   14.5866 H         1 UNK         0.0000 
  11299 H(8)       47.1409  113.1770   13.9469 H         1 UNK         0.0000 
  11300 H(9)       45.4636  112.8111   14.2946 H         1 UNK         0.0000 
  11301 O(1)       50.8642  104.0888    9.4321 O.3       1 UNK         0.0000 
  11302 O(2)       52.8620  110.2576    9.5479 O.2       1 UNK         0.0000 
  11303 N(1)       50.6808  109.6532    9.3602 N.am      1 UNK         0.0000 
  11304 C(1)       50.7803  108.2448    9.4114 C.ar      1 UNK         0.0000 
  11305 C(2)       51.8625  107.5566    9.9597 C.ar      1 UNK         0.0000 
  11306 C(3)       51.8695  106.1648    9.9633 C.ar      1 UNK         0.0000 
  11307 C(4)       50.7995  105.4502    9.4309 C.ar      1 UNK         0.0000 
  11308 C(5)       49.7039  106.1381    8.9107 C.ar      1 UNK         0.0000 
  11309 C(6)       49.6985  107.5256    8.9020 C.ar      1 UNK         0.0000 
  11310 C(7)       51.6716  110.5585    9.4070 C.2       1 UNK         0.0000 
  11311 C(8)       51.2308  111.9927    9.2860 C.3       1 UNK         0.0000 
  11312 H(1)       52.7030  108.0991   10.3744 H         1 UNK         0.0000 
  11313 H(2)       52.7203  105.6483   10.3903 H         1 UNK         0.0000 
  11314 H(3)       48.8607  105.5888    8.5104 H         1 UNK         0.0000 
  11315 H(4)       48.8479  108.0591    8.4961 H         1 UNK         0.0000 
  11316 H(5)       49.9907  103.7062    9.2841 H         1 UNK         0.0000 
  11317 H(6)       49.7549  110.0167    9.1910 H         1 UNK         0.0000 
  11318 H(7)       51.3090  112.4558   10.2352 H         1 UNK         0.0000 
  11319 H(8)       50.2340  112.0908    8.9420 H         1 UNK         0.0000 
  11320 H(9)       51.9112  112.5103    8.6612 H         1 UNK         0.0000 
  11321 O(1)       41.0441  116.2865   15.5017 O.3       1 UNK         0.0000 
  11322 O(2)       43.0419  117.5266    9.4577 O.2       1 UNK         0.0000 
  11323 N(1)       40.8607  117.5773   10.0886 N.am      1 UNK         0.0000 
  11324 C(1)       40.9602  117.2183   11.4515 C.ar      1 UNK         0.0000 
  11325 C(2)       42.0423  116.5325   12.0027 C.ar      1 UNK         0.0000 
  11326 C(3)       42.0494  116.2237   13.3599 C.ar      1 UNK         0.0000 
  11327 C(4)       40.9794  116.5864   14.1738 C.ar      1 UNK         0.0000 
  11328 C(5)       39.8837  117.2447   13.6167 C.ar      1 UNK         0.0000 
  11329 C(6)       39.8784  117.5576   12.2649 C.ar      1 UNK         0.0000 
  11330 C(7)       41.8515  117.7301    9.1951 C.2       1 UNK         0.0000 
  11331 C(8)       41.4107  118.1627    7.8224 C.3       1 UNK         0.0000 
  11332 H(1)       42.8829  116.2468   11.3824 H         1 UNK         0.0000 
  11333 H(2)       42.9002  115.6938   13.7701 H         1 UNK         0.0000 
  11334 H(3)       39.0406  117.5148   14.2404 H         1 UNK         0.0000 
  11335 H(4)       39.0278  118.0707   11.8334 H         1 UNK         0.0000 
  11336 H(5)       40.1706  116.3471   15.9075 H         1 UNK         0.0000 
  11337 H(6)       39.9348  117.8220    9.7711 H         1 UNK         0.0000 
  11338 H(7)       41.4889  117.3383    7.1624 H         1 UNK         0.0000 
  11339 H(8)       40.4139  118.5199    7.8021 H         1 UNK         0.0000 
  11340 H(9)       42.0911  118.8858    7.4544 H         1 UNK         0.0000 
  11341 O(1)       42.1768  112.9257   12.3169 O.3       1 UNK         0.0000 
  11342 O(2)       40.1790  106.7569   12.2011 O.2       1 UNK         0.0000 
  11343 N(1)       42.3601  107.3613   12.3888 N.am      1 UNK         0.0000 
  11344 C(1)       42.2607  108.7698   12.3376 C.ar      1 UNK         0.0000 
  11345 C(2)       41.1785  109.4580   11.7893 C.ar      1 UNK         0.0000 
  11346 C(3)       41.1715  110.8498   11.7858 C.ar      1 UNK         0.0000 
  11347 C(4)       42.2415  111.5644   12.3181 C.ar      1 UNK         0.0000 
  11348 C(5)       43.3371  110.8765   12.8383 C.ar      1 UNK         0.0000 
  11349 C(6)       43.3424  109.4889   12.8470 C.ar      1 UNK         0.0000 
  11350 C(7)       41.3693  106.4560   12.3420 C.2       1 UNK         0.0000 
  11351 C(8)       41.8102  105.0219   12.4630 C.3       1 UNK         0.0000 
  11352 H(1)       40.3380  108.9154   11.3746 H         1 UNK         0.0000 
  11353 H(2)       40.3207  111.3663   11.3587 H         1 UNK         0.0000 
  11354 H(3)       44.1803  111.4257   13.2386 H         1 UNK         0.0000 
  11355 H(4)       44.1930  108.9554   13.2530 H         1 UNK         0.0000 
  11356 H(5)       43.0502  113.3083   12.4649 H         1 UNK         0.0000 
  11357 H(6)       43.2861  106.9979   12.5580 H         1 UNK         0.0000 
  11358 H(7)       41.7319  104.5588   11.5138 H         1 UNK         0.0000 
  11359 H(8)       42.8070  104.9238   12.8070 H         1 UNK         0.0000 
  11360 H(9)       41.1297  104.5042   13.0878 H         1 UNK         0.0000 
  11361 O(1)       46.5107  121.1413   13.4097 O.3       1 UNK         0.0000 
  11362 O(2)       44.5129  119.9012   19.4537 O.2       1 UNK         0.0000 
  11363 N(1)       46.6940  119.8506   18.8228 N.am      1 UNK         0.0000 
  11364 C(1)       46.5946  120.2095   17.4599 C.ar      1 UNK         0.0000 
  11365 C(2)       45.5124  120.8954   16.9087 C.ar      1 UNK         0.0000 
  11366 C(3)       45.5054  121.2042   15.5516 C.ar      1 UNK         0.0000 
  11367 C(4)       46.5754  120.8415   14.7376 C.ar      1 UNK         0.0000 
  11368 C(5)       47.6710  120.1831   15.2947 C.ar      1 UNK         0.0000 
  11369 C(6)       47.6763  119.8702   16.6465 C.ar      1 UNK         0.0000 
  11370 C(7)       45.7032  119.6978   19.7163 C.2       1 UNK         0.0000 
  11371 C(8)       46.1441  119.2651   21.0890 C.3       1 UNK         0.0000 
  11372 H(1)       44.6719  121.1810   17.5290 H         1 UNK         0.0000 
  11373 H(2)       44.6546  121.7341   15.1413 H         1 UNK         0.0000 
  11374 H(3)       48.5142  119.9130   14.6710 H         1 UNK         0.0000 
  11375 H(4)       48.5269  119.3572   17.0780 H         1 UNK         0.0000 
  11376 H(5)       47.3841  121.0808   13.0039 H         1 UNK         0.0000 
  11377 H(6)       47.6200  119.6059   19.1403 H         1 UNK         0.0000 
  11378 H(7)       46.0658  120.0896   21.7490 H         1 UNK         0.0000 
  11379 H(8)       47.1409  118.9080   21.1093 H         1 UNK         0.0000 
  11380 H(9)       45.4636  118.5420   21.4570 H         1 UNK         0.0000 
  11381 O(1)       50.8642  109.8198   16.5945 O.3       1 UNK         0.0000 
  11382 O(2)       52.8620  115.9886   16.7103 O.2       1 UNK         0.0000 
  11383 N(1)       50.6808  115.3842   16.5226 N.am      1 UNK         0.0000 
  11384 C(1)       50.7803  113.9758   16.5738 C.ar      1 UNK         0.0000 
  11385 C(2)       51.8625  113.2875   17.1221 C.ar      1 UNK         0.0000 
  11386 C(3)       51.8695  111.8957   17.1257 C.ar      1 UNK         0.0000 
  11387 C(4)       50.7995  111.1811   16.5933 C.ar      1 UNK         0.0000 
  11388 C(5)       49.7039  111.8690   16.0731 C.ar      1 UNK         0.0000 
  11389 C(6)       49.6985  113.2566   16.0644 C.ar      1 UNK         0.0000 
  11390 C(7)       51.6716  116.2895   16.5694 C.2       1 UNK         0.0000 
  11391 C(8)       51.2308  117.7236   16.4484 C.3       1 UNK         0.0000 
  11392 H(1)       52.7030  113.8301   17.5368 H         1 UNK         0.0000 
  11393 H(2)       52.7203  111.3793   17.5527 H         1 UNK         0.0000 
  11394 H(3)       48.8607  111.3198   15.6728 H         1 UNK         0.0000 
  11395 H(4)       48.8479  113.7901   15.6585 H         1 UNK         0.0000 
  11396 H(5)       49.9907  109.4372   16.4465 H         1 UNK         0.0000 
  11397 H(6)       49.7549  115.7477   16.3534 H         1 UNK         0.0000 
  11398 H(7)       51.3090  118.1867   17.3976 H         1 UNK         0.0000 
  11399 H(8)       50.2340  117.8218   16.1044 H         1 UNK         0.0000 
  11400 H(9)       51.9112  118.2413   15.8236 H         1 UNK         0.0000 
  11401 O(1)       46.5303  107.3352   22.6641 O.3       1 UNK         0.0000 
  11402 O(2)       48.5281  108.5753   16.6201 O.2       1 UNK         0.0000 
  11403 N(1)       46.3470  108.6259   17.2510 N.am      1 UNK         0.0000 
  11404 C(1)       46.4464  108.2670   18.6139 C.ar      1 UNK         0.0000 
  11405 C(2)       47.5286  107.5811   19.1651 C.ar      1 UNK         0.0000 
  11406 C(3)       47.5356  107.2723   20.5223 C.ar      1 UNK         0.0000 
  11407 C(4)       46.4656  107.6350   21.3362 C.ar      1 UNK         0.0000 
  11408 C(5)       45.3700  108.2934   20.7791 C.ar      1 UNK         0.0000 
  11409 C(6)       45.3647  108.6062   19.4273 C.ar      1 UNK         0.0000 
  11410 C(7)       47.3377  108.7787   16.3575 C.2       1 UNK         0.0000 
  11411 C(8)       46.8969  109.2114   14.9848 C.3       1 UNK         0.0000 
  11412 H(1)       48.3691  107.2954   18.5448 H         1 UNK         0.0000 
  11413 H(2)       48.3864  106.7424   20.9325 H         1 UNK         0.0000 
  11414 H(3)       44.5268  108.5635   21.4028 H         1 UNK         0.0000 
  11415 H(4)       44.5140  109.1193   18.9958 H         1 UNK         0.0000 
  11416 H(5)       45.6568  107.3957   23.0699 H         1 UNK         0.0000 
  11417 H(6)       45.4210  108.8706   16.9335 H         1 UNK         0.0000 
  11418 H(7)       46.9751  108.3869   14.3248 H         1 UNK         0.0000 
  11419 H(8)       45.9001  109.5685   14.9645 H         1 UNK         0.0000 
  11420 H(9)       47.5774  109.9345   14.6168 H         1 UNK         0.0000 
  11421 O(1)       49.2538  118.6567   19.4793 O.3       1 UNK         0.0000 
  11422 O(2)       47.2560  112.4879   19.3635 O.2       1 UNK         0.0000 
  11423 N(1)       49.4371  113.0923   19.5512 N.am      1 UNK         0.0000 
  11424 C(1)       49.3377  114.5007   19.5000 C.ar      1 UNK         0.0000 
  11425 C(2)       48.2555  115.1890   18.9517 C.ar      1 UNK         0.0000 
  11426 C(3)       48.2485  116.5808   18.9482 C.ar      1 UNK         0.0000 
  11427 C(4)       49.3185  117.2954   19.4805 C.ar      1 UNK         0.0000 
  11428 C(5)       50.4141  116.6074   20.0007 C.ar      1 UNK         0.0000 
  11429 C(6)       50.4194  115.2199   20.0094 C.ar      1 UNK         0.0000 
  11430 C(7)       48.4463  112.1870   19.5044 C.2       1 UNK         0.0000 
  11431 C(8)       48.8872  110.7529   19.6254 C.3       1 UNK         0.0000 
  11432 H(1)       47.4150  114.6464   18.5370 H         1 UNK         0.0000 
  11433 H(2)       47.3977  117.0972   18.5211 H         1 UNK         0.0000 
  11434 H(3)       51.2573  117.1567   20.4010 H         1 UNK         0.0000 
  11435 H(4)       51.2700  114.6864   20.4154 H         1 UNK         0.0000 
  11436 H(5)       50.1272  119.0393   19.6273 H         1 UNK         0.0000 
  11437 H(6)       50.3631  112.7288   19.7204 H         1 UNK         0.0000 
  11438 H(7)       48.8089  110.2898   18.6762 H         1 UNK         0.0000 
  11439 H(8)       49.8840  110.6547   19.9694 H         1 UNK         0.0000 
  11440 H(9)       48.2067  110.2352   20.2502 H         1 UNK         0.0000 
  11441 O(1)       44.9199  112.1899   20.5721 O.3       1 UNK         0.0000 
  11442 O(2)       42.9221  110.9499   26.6161 O.2       1 UNK         0.0000 
  11443 N(1)       45.1032  110.8992   25.9852 N.am      1 UNK         0.0000 
  11444 C(1)       45.0038  111.2581   24.6223 C.ar      1 UNK         0.0000 
  11445 C(2)       43.9216  111.9440   24.0711 C.ar      1 UNK         0.0000 
  11446 C(3)       43.9146  112.2528   22.7140 C.ar      1 UNK         0.0000 
  11447 C(4)       44.9846  111.8901   21.9000 C.ar      1 UNK         0.0000 
  11448 C(5)       46.0802  111.2318   22.4571 C.ar      1 UNK         0.0000 
  11449 C(6)       46.0855  110.9189   23.8089 C.ar      1 UNK         0.0000 
  11450 C(7)       44.1125  110.7464   26.8787 C.2       1 UNK         0.0000 
  11451 C(8)       44.5533  110.3138   28.2514 C.3       1 UNK         0.0000 
  11452 H(1)       43.0811  112.2297   24.6914 H         1 UNK         0.0000 
  11453 H(2)       43.0638  112.7827   22.3037 H         1 UNK         0.0000 
  11454 H(3)       46.9234  110.9617   21.8334 H         1 UNK         0.0000 
  11455 H(4)       46.9361  110.4058   24.2404 H         1 UNK         0.0000 
  11456 H(5)       45.7933  112.1294   20.1663 H         1 UNK         0.0000 
  11457 H(6)       46.0292  110.6545   26.3027 H         1 UNK         0.0000 
  11458 H(7)       44.4750  111.1382   28.9114 H         1 UNK         0.0000 
  11459 H(8)       45.5501  109.9566   28.2717 H         1 UNK         0.0000 
  11460 H(9)       43.8728  109.5907   28.6194 H         1 UNK         0.0000 
  11461 O(1)       43.7872  115.5508   23.7569 O.3       1 UNK         0.0000 
  11462 O(2)       45.7850  121.7196   23.8727 O.2       1 UNK         0.0000 
  11463 N(1)       43.6038  121.1152   23.6850 N.am      1 UNK         0.0000 
  11464 C(1)       43.7033  119.7067   23.7362 C.ar      1 UNK         0.0000 
  11465 C(2)       44.7855  119.0185   24.2845 C.ar      1 UNK         0.0000 
  11466 C(3)       44.7925  117.6267   24.2881 C.ar      1 UNK         0.0000 
  11467 C(4)       43.7225  116.9121   23.7557 C.ar      1 UNK         0.0000 
  11468 C(5)       42.6269  117.6000   23.2355 C.ar      1 UNK         0.0000 
  11469 C(6)       42.6215  118.9876   23.2268 C.ar      1 UNK         0.0000 
  11470 C(7)       44.5946  122.0205   23.7318 C.2       1 UNK         0.0000 
  11471 C(8)       44.1538  123.4546   23.6108 C.3       1 UNK         0.0000 
  11472 H(1)       45.6260  119.5610   24.6992 H         1 UNK         0.0000 
  11473 H(2)       45.6433  117.1102   24.7151 H         1 UNK         0.0000 
  11474 H(3)       41.7837  117.0508   22.8352 H         1 UNK         0.0000 
  11475 H(4)       41.7709  119.5211   22.8209 H         1 UNK         0.0000 
  11476 H(5)       42.9137  115.1682   23.6089 H         1 UNK         0.0000 
  11477 H(6)       42.6779  121.4786   23.5158 H         1 UNK         0.0000 
  11478 H(7)       44.2320  123.9177   24.5600 H         1 UNK         0.0000 
  11479 H(8)       43.1570  123.5527   23.2668 H         1 UNK         0.0000 
  11480 H(9)       44.8342  123.9723   22.9860 H         1 UNK         0.0000 
  11481 O(1)       48.1211  110.5556    8.3393 O.3       1 UNK         0.0000 
  11482 O(2)       50.1189  111.7957    2.2953 O.2       1 UNK         0.0000 
  11483 N(1)       47.9377  111.8463    2.9262 N.am      1 UNK         0.0000 
  11484 C(1)       48.0372  111.4874    4.2891 C.ar      1 UNK         0.0000 
  11485 C(2)       49.1193  110.8015    4.8403 C.ar      1 UNK         0.0000 
  11486 C(3)       49.1264  110.4927    6.1975 C.ar      1 UNK         0.0000 
  11487 C(4)       48.0564  110.8554    7.0114 C.ar      1 UNK         0.0000 
  11488 C(5)       46.9607  111.5138    6.4543 C.ar      1 UNK         0.0000 
  11489 C(6)       46.9554  111.8266    5.1025 C.ar      1 UNK         0.0000 
  11490 C(7)       48.9285  111.9991    2.0327 C.2       1 UNK         0.0000 
  11491 C(8)       48.4877  112.4318    0.6600 C.3       1 UNK         0.0000 
  11492 H(1)       49.9599  110.5158    4.2200 H         1 UNK         0.0000 
  11493 H(2)       49.9772  109.9628    6.6077 H         1 UNK         0.0000 
  11494 H(3)       46.1176  111.7839    7.0780 H         1 UNK         0.0000 
  11495 H(4)       46.1048  112.3397    4.6710 H         1 UNK         0.0000 
  11496 H(5)       47.2476  110.6161    8.7451 H         1 UNK         0.0000 
  11497 H(6)       47.0118  112.0910    2.6087 H         1 UNK         0.0000 
  11498 H(7)       48.5659  111.6073    0.0000 H         1 UNK         0.0000 
  11499 H(8)       47.4909  112.7889    0.6397 H         1 UNK         0.0000 
  11500 H(9)       49.1681  113.1549    0.2920 H         1 UNK         0.0000 
  11501 O(1)       50.8446  121.8771    5.1545 O.3       1 UNK         0.0000 
  11502 O(2)       48.8468  115.7083    5.0387 O.2       1 UNK         0.0000 
  11503 N(1)       51.0279  116.3127    5.2264 N.am      1 UNK         0.0000 
  11504 C(1)       50.9285  117.7211    5.1752 C.ar      1 UNK         0.0000 
  11505 C(2)       49.8463  118.4094    4.6269 C.ar      1 UNK         0.0000 
  11506 C(3)       49.8393  119.8012    4.6234 C.ar      1 UNK         0.0000 
  11507 C(4)       50.9093  120.5158    5.1557 C.ar      1 UNK         0.0000 
  11508 C(5)       52.0049  119.8278    5.6759 C.ar      1 UNK         0.0000 
  11509 C(6)       52.0102  118.4403    5.6846 C.ar      1 UNK         0.0000 
  11510 C(7)       50.0371  115.4074    5.1796 C.2       1 UNK         0.0000 
  11511 C(8)       50.4780  113.9733    5.3006 C.3       1 UNK         0.0000 
  11512 H(1)       49.0058  117.8668    4.2122 H         1 UNK         0.0000 
  11513 H(2)       48.9885  120.3176    4.1963 H         1 UNK         0.0000 
  11514 H(3)       52.8481  120.3771    6.0762 H         1 UNK         0.0000 
  11515 H(4)       52.8608  117.9068    6.0906 H         1 UNK         0.0000 
  11516 H(5)       51.7180  122.2597    5.3025 H         1 UNK         0.0000 
  11517 H(6)       51.9539  115.9492    5.3956 H         1 UNK         0.0000 
  11518 H(7)       50.3997  113.5102    4.3514 H         1 UNK         0.0000 
  11519 H(8)       51.4748  113.8751    5.6446 H         1 UNK         0.0000 
  11520 H(9)       49.7975  113.4556    5.9254 H         1 UNK         0.0000 
  11521 O(1)       48.1015  130.0927    6.2473 O.3       1 UNK         0.0000 
  11522 O(2)       46.1037  128.8526   12.2913 O.2       1 UNK         0.0000 
  11523 N(1)       48.2848  128.8020   11.6604 N.am      1 UNK         0.0000 
  11524 C(1)       48.1853  129.1609   10.2975 C.ar      1 UNK         0.0000 
  11525 C(2)       47.1032  129.8468    9.7463 C.ar      1 UNK         0.0000 
  11526 C(3)       47.0962  130.1555    8.3892 C.ar      1 UNK         0.0000 
  11527 C(4)       48.1662  129.7929    7.5752 C.ar      1 UNK         0.0000 
  11528 C(5)       49.2618  129.1345    8.1323 C.ar      1 UNK         0.0000 
  11529 C(6)       49.2671  128.8216    9.4841 C.ar      1 UNK         0.0000 
  11530 C(7)       47.2940  128.6491   12.5539 C.2       1 UNK         0.0000 
  11531 C(8)       47.7349  128.2165   13.9266 C.3       1 UNK         0.0000 
  11532 H(1)       46.2627  130.1324   10.3666 H         1 UNK         0.0000 
  11533 H(2)       46.2453  130.6854    7.9789 H         1 UNK         0.0000 
  11534 H(3)       50.1050  128.8644    7.5086 H         1 UNK         0.0000 
  11535 H(4)       50.1177  128.3085    9.9156 H         1 UNK         0.0000 
  11536 H(5)       48.9749  130.0322    5.8415 H         1 UNK         0.0000 
  11537 H(6)       49.2108  128.5572   11.9779 H         1 UNK         0.0000 
  11538 H(7)       47.6566  129.0410   14.5866 H         1 UNK         0.0000 
  11539 H(8)       48.7317  127.8594   13.9469 H         1 UNK         0.0000 
  11540 H(9)       47.0544  127.4934   14.2946 H         1 UNK         0.0000 
  11541 O(1)       52.4550  118.7712    9.4321 O.3       1 UNK         0.0000 
  11542 O(2)       54.4528  124.9400    9.5479 O.2       1 UNK         0.0000 
  11543 N(1)       52.2716  124.3356    9.3602 N.am      1 UNK         0.0000 
  11544 C(1)       52.3711  122.9271    9.4114 C.ar      1 UNK         0.0000 
  11545 C(2)       53.4532  122.2389    9.9597 C.ar      1 UNK         0.0000 
  11546 C(3)       53.4603  120.8471    9.9633 C.ar      1 UNK         0.0000 
  11547 C(4)       52.3902  120.1325    9.4309 C.ar      1 UNK         0.0000 
  11548 C(5)       51.2946  120.8204    8.9107 C.ar      1 UNK         0.0000 
  11549 C(6)       51.2893  122.2080    8.9020 C.ar      1 UNK         0.0000 
  11550 C(7)       53.2624  125.2409    9.4070 C.2       1 UNK         0.0000 
  11551 C(8)       52.8216  126.6750    9.2860 C.3       1 UNK         0.0000 
  11552 H(1)       54.2938  122.7814   10.3744 H         1 UNK         0.0000 
  11553 H(2)       54.3111  120.3306   10.3903 H         1 UNK         0.0000 
  11554 H(3)       50.4515  120.2712    8.5104 H         1 UNK         0.0000 
  11555 H(4)       50.4387  122.7415    8.4961 H         1 UNK         0.0000 
  11556 H(5)       51.5815  118.3886    9.2841 H         1 UNK         0.0000 
  11557 H(6)       51.3457  124.6990    9.1910 H         1 UNK         0.0000 
  11558 H(7)       52.8998  127.1381   10.2352 H         1 UNK         0.0000 
  11559 H(8)       51.8248  126.7731    8.9420 H         1 UNK         0.0000 
  11560 H(9)       53.5020  127.1927    8.6612 H         1 UNK         0.0000 
  11561 O(1)       42.6349  130.9689   15.5017 O.3       1 UNK         0.0000 
  11562 O(2)       44.6327  132.2090    9.4577 O.2       1 UNK         0.0000 
  11563 N(1)       42.4515  132.2596   10.0886 N.am      1 UNK         0.0000 
  11564 C(1)       42.5510  131.9007   11.4515 C.ar      1 UNK         0.0000 
  11565 C(2)       43.6331  131.2148   12.0027 C.ar      1 UNK         0.0000 
  11566 C(3)       43.6402  130.9060   13.3599 C.ar      1 UNK         0.0000 
  11567 C(4)       42.5701  131.2687   14.1738 C.ar      1 UNK         0.0000 
  11568 C(5)       41.4745  131.9271   13.6167 C.ar      1 UNK         0.0000 
  11569 C(6)       41.4692  132.2399   12.2649 C.ar      1 UNK         0.0000 
  11570 C(7)       43.4423  132.4124    9.1951 C.2       1 UNK         0.0000 
  11571 C(8)       43.0014  132.8451    7.8224 C.3       1 UNK         0.0000 
  11572 H(1)       44.4737  130.9291   11.3824 H         1 UNK         0.0000 
  11573 H(2)       44.4910  130.3761   13.7701 H         1 UNK         0.0000 
  11574 H(3)       40.6314  132.1972   14.2404 H         1 UNK         0.0000 
  11575 H(4)       40.6186  132.7530   11.8334 H         1 UNK         0.0000 
  11576 H(5)       41.7614  131.0294   15.9075 H         1 UNK         0.0000 
  11577 H(6)       41.5256  132.5043    9.7711 H         1 UNK         0.0000 
  11578 H(7)       43.0797  132.0206    7.1624 H         1 UNK         0.0000 
  11579 H(8)       42.0047  133.2022    7.8021 H         1 UNK         0.0000 
  11580 H(9)       43.6819  133.5682    7.4544 H         1 UNK         0.0000 
  11581 O(1)       43.7676  127.6080   12.3169 O.3       1 UNK         0.0000 
  11582 O(2)       41.7698  121.4393   12.2011 O.2       1 UNK         0.0000 
  11583 N(1)       43.9509  122.0437   12.3888 N.am      1 UNK         0.0000 
  11584 C(1)       43.8515  123.4521   12.3376 C.ar      1 UNK         0.0000 
  11585 C(2)       42.7693  124.1403   11.7893 C.ar      1 UNK         0.0000 
  11586 C(3)       42.7623  125.5321   11.7858 C.ar      1 UNK         0.0000 
  11587 C(4)       43.8323  126.2467   12.3181 C.ar      1 UNK         0.0000 
  11588 C(5)       44.9279  125.5588   12.8383 C.ar      1 UNK         0.0000 
  11589 C(6)       44.9332  124.1713   12.8470 C.ar      1 UNK         0.0000 
  11590 C(7)       42.9601  121.1383   12.3420 C.2       1 UNK         0.0000 
  11591 C(8)       43.4010  119.7042   12.4630 C.3       1 UNK         0.0000 
  11592 H(1)       41.9288  123.5978   11.3746 H         1 UNK         0.0000 
  11593 H(2)       41.9115  126.0486   11.3587 H         1 UNK         0.0000 
  11594 H(3)       45.7711  126.1081   13.2386 H         1 UNK         0.0000 
  11595 H(4)       45.7838  123.6378   13.2530 H         1 UNK         0.0000 
  11596 H(5)       44.6410  127.9906   12.4649 H         1 UNK         0.0000 
  11597 H(6)       44.8769  121.6802   12.5580 H         1 UNK         0.0000 
  11598 H(7)       43.3227  119.2411   11.5138 H         1 UNK         0.0000 
  11599 H(8)       44.3978  119.6061   12.8070 H         1 UNK         0.0000 
  11600 H(9)       42.7205  119.1866   13.0878 H         1 UNK         0.0000 
  11601 O(1)       48.1015  135.8236   13.4097 O.3       1 UNK         0.0000 
  11602 O(2)       46.1037  134.5836   19.4537 O.2       1 UNK         0.0000 
  11603 N(1)       48.2848  134.5329   18.8228 N.am      1 UNK         0.0000 
  11604 C(1)       48.1853  134.8918   17.4599 C.ar      1 UNK         0.0000 
  11605 C(2)       47.1032  135.5777   16.9087 C.ar      1 UNK         0.0000 
  11606 C(3)       47.0962  135.8865   15.5516 C.ar      1 UNK         0.0000 
  11607 C(4)       48.1662  135.5238   14.7376 C.ar      1 UNK         0.0000 
  11608 C(5)       49.2618  134.8654   15.2947 C.ar      1 UNK         0.0000 
  11609 C(6)       49.2671  134.5526   16.6465 C.ar      1 UNK         0.0000 
  11610 C(7)       47.2940  134.3801   19.7163 C.2       1 UNK         0.0000 
  11611 C(8)       47.7349  133.9475   21.0890 C.3       1 UNK         0.0000 
  11612 H(1)       46.2627  135.8634   17.5290 H         1 UNK         0.0000 
  11613 H(2)       46.2453  136.4164   15.1413 H         1 UNK         0.0000 
  11614 H(3)       50.1050  134.5954   14.6710 H         1 UNK         0.0000 
  11615 H(4)       50.1177  134.0395   17.0780 H         1 UNK         0.0000 
  11616 H(5)       48.9749  135.7631   13.0039 H         1 UNK         0.0000 
  11617 H(6)       49.2108  134.2882   19.1403 H         1 UNK         0.0000 
  11618 H(7)       47.6566  134.7719   21.7490 H         1 UNK         0.0000 
  11619 H(8)       48.7317  133.5903   21.1093 H         1 UNK         0.0000 
  11620 H(9)       47.0544  133.2244   21.4570 H         1 UNK         0.0000 
  11621 O(1)       52.4550  124.5021   16.5945 O.3       1 UNK         0.0000 
  11622 O(2)       54.4528  130.6709   16.7103 O.2       1 UNK         0.0000 
  11623 N(1)       52.2716  130.0665   16.5226 N.am      1 UNK         0.0000 
  11624 C(1)       52.3711  128.6581   16.5738 C.ar      1 UNK         0.0000 
  11625 C(2)       53.4532  127.9699   17.1221 C.ar      1 UNK         0.0000 
  11626 C(3)       53.4603  126.5781   17.1257 C.ar      1 UNK         0.0000 
  11627 C(4)       52.3902  125.8635   16.5933 C.ar      1 UNK         0.0000 
  11628 C(5)       51.2946  126.5514   16.0731 C.ar      1 UNK         0.0000 
  11629 C(6)       51.2893  127.9389   16.0644 C.ar      1 UNK         0.0000 
  11630 C(7)       53.2624  130.9718   16.5694 C.2       1 UNK         0.0000 
  11631 C(8)       52.8216  132.4060   16.4484 C.3       1 UNK         0.0000 
  11632 H(1)       54.2938  128.5124   17.5368 H         1 UNK         0.0000 
  11633 H(2)       54.3111  126.0616   17.5527 H         1 UNK         0.0000 
  11634 H(3)       50.4515  126.0021   15.6728 H         1 UNK         0.0000 
  11635 H(4)       50.4387  128.4724   15.6585 H         1 UNK         0.0000 
  11636 H(5)       51.5815  124.1195   16.4465 H         1 UNK         0.0000 
  11637 H(6)       51.3457  130.4300   16.3534 H         1 UNK         0.0000 
  11638 H(7)       52.8998  132.8691   17.3976 H         1 UNK         0.0000 
  11639 H(8)       51.8248  132.5041   16.1044 H         1 UNK         0.0000 
  11640 H(9)       53.5020  132.9236   15.8236 H         1 UNK         0.0000 
  11641 O(1)       48.1211  122.0175   22.6641 O.3       1 UNK         0.0000 
  11642 O(2)       50.1189  123.2576   16.6201 O.2       1 UNK         0.0000 
  11643 N(1)       47.9377  123.3082   17.2510 N.am      1 UNK         0.0000 
  11644 C(1)       48.0372  122.9493   18.6139 C.ar      1 UNK         0.0000 
  11645 C(2)       49.1193  122.2634   19.1651 C.ar      1 UNK         0.0000 
  11646 C(3)       49.1264  121.9547   20.5223 C.ar      1 UNK         0.0000 
  11647 C(4)       48.0564  122.3173   21.3362 C.ar      1 UNK         0.0000 
  11648 C(5)       46.9607  122.9757   20.7791 C.ar      1 UNK         0.0000 
  11649 C(6)       46.9554  123.2886   19.4273 C.ar      1 UNK         0.0000 
  11650 C(7)       48.9285  123.4611   16.3575 C.2       1 UNK         0.0000 
  11651 C(8)       48.4877  123.8937   14.9848 C.3       1 UNK         0.0000 
  11652 H(1)       49.9599  121.9778   18.5448 H         1 UNK         0.0000 
  11653 H(2)       49.9772  121.4248   20.9325 H         1 UNK         0.0000 
  11654 H(3)       46.1176  123.2458   21.4028 H         1 UNK         0.0000 
  11655 H(4)       46.1048  123.8016   18.9958 H         1 UNK         0.0000 
  11656 H(5)       47.2476  122.0780   23.0699 H         1 UNK         0.0000 
  11657 H(6)       47.0118  123.5530   16.9335 H         1 UNK         0.0000 
  11658 H(7)       48.5659  123.0692   14.3248 H         1 UNK         0.0000 
  11659 H(8)       47.4909  124.2508   14.9645 H         1 UNK         0.0000 
  11660 H(9)       49.1681  124.6168   14.6168 H         1 UNK         0.0000 
  11661 O(1)       50.8446  133.3390   19.4793 O.3       1 UNK         0.0000 
  11662 O(2)       48.8468  127.1702   19.3635 O.2       1 UNK         0.0000 
  11663 N(1)       51.0279  127.7746   19.5512 N.am      1 UNK         0.0000 
  11664 C(1)       50.9285  129.1831   19.5000 C.ar      1 UNK         0.0000 
  11665 C(2)       49.8463  129.8713   18.9517 C.ar      1 UNK         0.0000 
  11666 C(3)       49.8393  131.2631   18.9482 C.ar      1 UNK         0.0000 
  11667 C(4)       50.9093  131.9777   19.4805 C.ar      1 UNK         0.0000 
  11668 C(5)       52.0049  131.2898   20.0007 C.ar      1 UNK         0.0000 
  11669 C(6)       52.0102  129.9022   20.0094 C.ar      1 UNK         0.0000 
  11670 C(7)       50.0371  126.8693   19.5044 C.2       1 UNK         0.0000 
  11671 C(8)       50.4780  125.4352   19.6254 C.3       1 UNK         0.0000 
  11672 H(1)       49.0058  129.3287   18.5370 H         1 UNK         0.0000 
  11673 H(2)       48.9885  131.7796   18.5211 H         1 UNK         0.0000 
  11674 H(3)       52.8481  131.8390   20.4010 H         1 UNK         0.0000 
  11675 H(4)       52.8608  129.3687   20.4154 H         1 UNK         0.0000 
  11676 H(5)       51.7180  133.7216   19.6273 H         1 UNK         0.0000 
  11677 H(6)       51.9539  127.4112   19.7204 H         1 UNK         0.0000 
  11678 H(7)       50.3997  124.9721   18.6762 H         1 UNK         0.0000 
  11679 H(8)       51.4748  125.3370   19.9694 H         1 UNK         0.0000 
  11680 H(9)       49.7975  124.9175   20.2502 H         1 UNK         0.0000 
  11681 O(1)       46.5107  126.8723   20.5721 O.3       1 UNK         0.0000 
  11682 O(2)       44.5129  125.6322   26.6161 O.2       1 UNK         0.0000 
  11683 N(1)       46.6940  125.5816   25.9852 N.am      1 UNK         0.0000 
  11684 C(1)       46.5946  125.9405   24.6223 C.ar      1 UNK         0.0000 
  11685 C(2)       45.5124  126.6264   24.0711 C.ar      1 UNK         0.0000 
  11686 C(3)       45.5054  126.9351   22.7140 C.ar      1 UNK         0.0000 
  11687 C(4)       46.5754  126.5725   21.9000 C.ar      1 UNK         0.0000 
  11688 C(5)       47.6710  125.9141   22.4571 C.ar      1 UNK         0.0000 
  11689 C(6)       47.6763  125.6012   23.8089 C.ar      1 UNK         0.0000 
  11690 C(7)       45.7032  125.4287   26.8787 C.2       1 UNK         0.0000 
  11691 C(8)       46.1441  124.9961   28.2514 C.3       1 UNK         0.0000 
  11692 H(1)       44.6719  126.9120   24.6914 H         1 UNK         0.0000 
  11693 H(2)       44.6546  127.4650   22.3037 H         1 UNK         0.0000 
  11694 H(3)       48.5142  125.6440   21.8334 H         1 UNK         0.0000 
  11695 H(4)       48.5269  125.0881   24.2404 H         1 UNK         0.0000 
  11696 H(5)       47.3841  126.8118   20.1663 H         1 UNK         0.0000 
  11697 H(6)       47.6200  125.3368   26.3027 H         1 UNK         0.0000 
  11698 H(7)       46.0658  125.8206   28.9114 H         1 UNK         0.0000 
  11699 H(8)       47.1409  124.6390   28.2717 H         1 UNK         0.0000 
  11700 H(9)       45.4636  124.2730   28.6194 H         1 UNK         0.0000 
  11701 O(1)       45.3780  130.2331   23.7569 O.3       1 UNK         0.0000 
  11702 O(2)       47.3758  136.4019   23.8727 O.2       1 UNK         0.0000 
  11703 N(1)       45.1946  135.7975   23.6850 N.am      1 UNK         0.0000 
  11704 C(1)       45.2941  134.3890   23.7362 C.ar      1 UNK         0.0000 
  11705 C(2)       46.3762  133.7008   24.2845 C.ar      1 UNK         0.0000 
  11706 C(3)       46.3833  132.3090   24.2881 C.ar      1 UNK         0.0000 
  11707 C(4)       45.3132  131.5944   23.7557 C.ar      1 UNK         0.0000 
  11708 C(5)       44.2176  132.2823   23.2355 C.ar      1 UNK         0.0000 
  11709 C(6)       44.2123  133.6699   23.2268 C.ar      1 UNK         0.0000 
  11710 C(7)       46.1854  136.7028   23.7318 C.2       1 UNK         0.0000 
  11711 C(8)       45.7446  138.1369   23.6108 C.3       1 UNK         0.0000 
  11712 H(1)       47.2168  134.2434   24.6992 H         1 UNK         0.0000 
  11713 H(2)       47.2341  131.7926   24.7151 H         1 UNK         0.0000 
  11714 H(3)       43.3745  131.7331   22.8352 H         1 UNK         0.0000 
  11715 H(4)       43.3617  134.2034   22.8209 H         1 UNK         0.0000 
  11716 H(5)       44.5045  129.8505   23.6089 H         1 UNK         0.0000 
  11717 H(6)       44.2687  136.1610   23.5158 H         1 UNK         0.0000 
  11718 H(7)       45.8228  138.6000   24.5600 H         1 UNK         0.0000 
  11719 H(8)       44.7478  138.2351   23.2668 H         1 UNK         0.0000 
  11720 H(9)       46.4250  138.6546   22.9860 H         1 UNK         0.0000 
  11721 O(1)       49.7119  125.2379    8.3393 O.3       1 UNK         0.0000 
  11722 O(2)       51.7097  126.4780    2.2953 O.2       1 UNK         0.0000 
  11723 N(1)       49.5285  126.5286    2.9262 N.am      1 UNK         0.0000 
  11724 C(1)       49.6280  126.1697    4.2891 C.ar      1 UNK         0.0000 
  11725 C(2)       50.7101  125.4838    4.8403 C.ar      1 UNK         0.0000 
  11726 C(3)       50.7172  125.1751    6.1975 C.ar      1 UNK         0.0000 
  11727 C(4)       49.6471  125.5377    7.0114 C.ar      1 UNK         0.0000 
  11728 C(5)       48.5515  126.1961    6.4543 C.ar      1 UNK         0.0000 
  11729 C(6)       48.5462  126.5090    5.1025 C.ar      1 UNK         0.0000 
  11730 C(7)       50.5193  126.6815    2.0327 C.2       1 UNK         0.0000 
  11731 C(8)       50.0784  127.1141    0.6600 C.3       1 UNK         0.0000 
  11732 H(1)       51.5507  125.1982    4.2200 H         1 UNK         0.0000 
  11733 H(2)       51.5680  124.6452    6.6077 H         1 UNK         0.0000 
  11734 H(3)       47.7084  126.4662    7.0780 H         1 UNK         0.0000 
  11735 H(4)       47.6956  127.0220    4.6710 H         1 UNK         0.0000 
  11736 H(5)       48.8384  125.2984    8.7451 H         1 UNK         0.0000 
  11737 H(6)       48.6026  126.7734    2.6087 H         1 UNK         0.0000 
  11738 H(7)       50.1567  126.2896    0.0000 H         1 UNK         0.0000 
  11739 H(8)       49.0817  127.4712    0.6397 H         1 UNK         0.0000 
  11740 H(9)       50.7589  127.8372    0.2920 H         1 UNK         0.0000 
  11741 O(1)       52.4354  136.5594    5.1545 O.3       1 UNK         0.0000 
  11742 O(2)       50.4375  130.3906    5.0387 O.2       1 UNK         0.0000 
  11743 N(1)       52.6187  130.9950    5.2264 N.am      1 UNK         0.0000 
  11744 C(1)       52.5192  132.4035    5.1752 C.ar      1 UNK         0.0000 
  11745 C(2)       51.4371  133.0917    4.6269 C.ar      1 UNK         0.0000 
  11746 C(3)       51.4300  134.4835    4.6234 C.ar      1 UNK         0.0000 
  11747 C(4)       52.5001  135.1981    5.1557 C.ar      1 UNK         0.0000 
  11748 C(5)       53.5957  134.5102    5.6759 C.ar      1 UNK         0.0000 
  11749 C(6)       53.6010  133.1226    5.6846 C.ar      1 UNK         0.0000 
  11750 C(7)       51.6279  130.0897    5.1796 C.2       1 UNK         0.0000 
  11751 C(8)       52.0688  128.6556    5.3006 C.3       1 UNK         0.0000 
  11752 H(1)       50.5965  132.5491    4.2122 H         1 UNK         0.0000 
  11753 H(2)       50.5792  135.0000    4.1963 H         1 UNK         0.0000 
  11754 H(3)       54.4388  135.0594    6.0762 H         1 UNK         0.0000 
  11755 H(4)       54.4516  132.5891    6.0906 H         1 UNK         0.0000 
  11756 H(5)       53.3088  136.9420    5.3025 H         1 UNK         0.0000 
  11757 H(6)       53.5447  130.6316    5.3956 H         1 UNK         0.0000 
  11758 H(7)       51.9905  128.1925    4.3514 H         1 UNK         0.0000 
  11759 H(8)       53.0655  128.5574    5.6446 H         1 UNK         0.0000 
  11760 H(9)       51.3883  128.1379    5.9254 H         1 UNK         0.0000 
  11761 O(1)       49.6923  144.7750    6.2473 O.3       1 UNK         0.0000 
  11762 O(2)       47.6944  143.5349   12.2913 O.2       1 UNK         0.0000 
  11763 N(1)       49.8756  143.4843   11.6604 N.am      1 UNK         0.0000 
  11764 C(1)       49.7761  143.8432   10.2975 C.ar      1 UNK         0.0000 
  11765 C(2)       48.6940  144.5291    9.7463 C.ar      1 UNK         0.0000 
  11766 C(3)       48.6869  144.8378    8.3892 C.ar      1 UNK         0.0000 
  11767 C(4)       49.7570  144.4752    7.5752 C.ar      1 UNK         0.0000 
  11768 C(5)       50.8526  143.8168    8.1323 C.ar      1 UNK         0.0000 
  11769 C(6)       50.8579  143.5039    9.4841 C.ar      1 UNK         0.0000 
  11770 C(7)       48.8848  143.3315   12.5539 C.2       1 UNK         0.0000 
  11771 C(8)       49.3257  142.8988   13.9266 C.3       1 UNK         0.0000 
  11772 H(1)       47.8534  144.8147   10.3666 H         1 UNK         0.0000 
  11773 H(2)       47.8361  145.3678    7.9789 H         1 UNK         0.0000 
  11774 H(3)       51.6957  143.5467    7.5086 H         1 UNK         0.0000 
  11775 H(4)       51.7085  142.9909    9.9156 H         1 UNK         0.0000 
  11776 H(5)       50.5657  144.7145    5.8415 H         1 UNK         0.0000 
  11777 H(6)       50.8015  143.2395   11.9779 H         1 UNK         0.0000 
  11778 H(7)       49.2474  143.7233   14.5866 H         1 UNK         0.0000 
  11779 H(8)       50.3224  142.5417   13.9469 H         1 UNK         0.0000 
  11780 H(9)       48.6452  142.1757   14.2946 H         1 UNK         0.0000 
  11781 O(1)       54.0457  133.4535    9.4321 O.3       1 UNK         0.0000 
  11782 O(2)       56.0436  139.6223    9.5479 O.2       1 UNK         0.0000 
  11783 N(1)       53.8624  139.0179    9.3602 N.am      1 UNK         0.0000 
  11784 C(1)       53.9619  137.6094    9.4114 C.ar      1 UNK         0.0000 
  11785 C(2)       55.0440  136.9212    9.9597 C.ar      1 UNK         0.0000 
  11786 C(3)       55.0511  135.5294    9.9633 C.ar      1 UNK         0.0000 
  11787 C(4)       53.9810  134.8148    9.4309 C.ar      1 UNK         0.0000 
  11788 C(5)       52.8854  135.5027    8.9107 C.ar      1 UNK         0.0000 
  11789 C(6)       52.8801  136.8903    8.9020 C.ar      1 UNK         0.0000 
  11790 C(7)       54.8532  139.9232    9.4070 C.2       1 UNK         0.0000 
  11791 C(8)       54.4123  141.3573    9.2860 C.3       1 UNK         0.0000 
  11792 H(1)       55.8846  137.4638   10.3744 H         1 UNK         0.0000 
  11793 H(2)       55.9019  135.0130   10.3903 H         1 UNK         0.0000 
  11794 H(3)       52.0423  134.9535    8.5104 H         1 UNK         0.0000 
  11795 H(4)       52.0295  137.4238    8.4961 H         1 UNK         0.0000 
  11796 H(5)       53.1723  133.0709    9.2841 H         1 UNK         0.0000 
  11797 H(6)       52.9365  139.3814    9.1910 H         1 UNK         0.0000 
  11798 H(7)       54.4906  141.8204   10.2352 H         1 UNK         0.0000 
  11799 H(8)       53.4156  141.4555    8.9420 H         1 UNK         0.0000 
  11800 H(9)       55.0928  141.8750    8.6612 H         1 UNK         0.0000 
  11801 O(1)       44.2256  145.6512   15.5017 O.3       1 UNK         0.0000 
  11802 O(2)       46.2235  146.8913    9.4577 O.2       1 UNK         0.0000 
  11803 N(1)       44.0423  146.9419   10.0886 N.am      1 UNK         0.0000 
  11804 C(1)       44.1418  146.5830   11.4515 C.ar      1 UNK         0.0000 
  11805 C(2)       45.2239  145.8971   12.0027 C.ar      1 UNK         0.0000 
  11806 C(3)       45.2309  145.5884   13.3599 C.ar      1 UNK         0.0000 
  11807 C(4)       44.1609  145.9510   14.1738 C.ar      1 UNK         0.0000 
  11808 C(5)       43.0653  146.6094   13.6167 C.ar      1 UNK         0.0000 
  11809 C(6)       43.0600  146.9223   12.2649 C.ar      1 UNK         0.0000 
  11810 C(7)       45.0331  147.0948    9.1951 C.2       1 UNK         0.0000 
  11811 C(8)       44.5922  147.5274    7.8224 C.3       1 UNK         0.0000 
  11812 H(1)       46.0645  145.6115   11.3824 H         1 UNK         0.0000 
  11813 H(2)       46.0818  145.0585   13.7701 H         1 UNK         0.0000 
  11814 H(3)       42.2221  146.8795   14.2404 H         1 UNK         0.0000 
  11815 H(4)       42.2094  147.4353   11.8334 H         1 UNK         0.0000 
  11816 H(5)       43.3522  145.7117   15.9075 H         1 UNK         0.0000 
  11817 H(6)       43.1163  147.1867    9.7711 H         1 UNK         0.0000 
  11818 H(7)       44.6705  146.7029    7.1624 H         1 UNK         0.0000 
  11819 H(8)       43.5954  147.8845    7.8021 H         1 UNK         0.0000 
  11820 H(9)       45.2727  148.2505    7.4544 H         1 UNK         0.0000 
  11821 O(1)       45.3584  142.2904   12.3169 O.3       1 UNK         0.0000 
  11822 O(2)       43.3605  136.1216   12.2011 O.2       1 UNK         0.0000 
  11823 N(1)       45.5417  136.7260   12.3888 N.am      1 UNK         0.0000 
  11824 C(1)       45.4422  138.1344   12.3376 C.ar      1 UNK         0.0000 
  11825 C(2)       44.3601  138.8226   11.7893 C.ar      1 UNK         0.0000 
  11826 C(3)       44.3530  140.2145   11.7858 C.ar      1 UNK         0.0000 
  11827 C(4)       45.4231  140.9291   12.3181 C.ar      1 UNK         0.0000 
  11828 C(5)       46.5187  140.2411   12.8383 C.ar      1 UNK         0.0000 
  11829 C(6)       46.5240  138.8536   12.8470 C.ar      1 UNK         0.0000 
  11830 C(7)       44.5509  135.8207   12.3420 C.2       1 UNK         0.0000 
  11831 C(8)       44.9918  134.3866   12.4630 C.3       1 UNK         0.0000 
  11832 H(1)       43.5195  138.2801   11.3746 H         1 UNK         0.0000 
  11833 H(2)       43.5022  140.7309   11.3587 H         1 UNK         0.0000 
  11834 H(3)       47.3618  140.7904   13.2386 H         1 UNK         0.0000 
  11835 H(4)       47.3746  138.3201   13.2530 H         1 UNK         0.0000 
  11836 H(5)       46.2318  142.6730   12.4649 H         1 UNK         0.0000 
  11837 H(6)       46.4677  136.3625   12.5580 H         1 UNK         0.0000 
  11838 H(7)       44.9135  133.9235   11.5138 H         1 UNK         0.0000 
  11839 H(8)       45.9885  134.2884   12.8070 H         1 UNK         0.0000 
  11840 H(9)       44.3113  133.8689   13.0878 H         1 UNK         0.0000 
  11841 O(1)       49.6923  150.5060   13.4097 O.3       1 UNK         0.0000 
  11842 O(2)       47.6944  149.2659   19.4537 O.2       1 UNK         0.0000 
  11843 N(1)       49.8756  149.2153   18.8228 N.am      1 UNK         0.0000 
  11844 C(1)       49.7761  149.5742   17.4599 C.ar      1 UNK         0.0000 
  11845 C(2)       48.6940  150.2601   16.9087 C.ar      1 UNK         0.0000 
  11846 C(3)       48.6869  150.5688   15.5516 C.ar      1 UNK         0.0000 
  11847 C(4)       49.7570  150.2062   14.7376 C.ar      1 UNK         0.0000 
  11848 C(5)       50.8526  149.5478   15.2947 C.ar      1 UNK         0.0000 
  11849 C(6)       50.8579  149.2349   16.6465 C.ar      1 UNK         0.0000 
  11850 C(7)       48.8848  149.0624   19.7163 C.2       1 UNK         0.0000 
  11851 C(8)       49.3257  148.6298   21.0890 C.3       1 UNK         0.0000 
  11852 H(1)       47.8534  150.5457   17.5290 H         1 UNK         0.0000 
  11853 H(2)       47.8361  151.0987   15.1413 H         1 UNK         0.0000 
  11854 H(3)       51.6957  149.2777   14.6710 H         1 UNK         0.0000 
  11855 H(4)       51.7085  148.7218   17.0780 H         1 UNK         0.0000 
  11856 H(5)       50.5657  150.4455   13.0039 H         1 UNK         0.0000 
  11857 H(6)       50.8015  148.9705   19.1403 H         1 UNK         0.0000 
  11858 H(7)       49.2474  149.4542   21.7490 H         1 UNK         0.0000 
  11859 H(8)       50.3224  148.2727   21.1093 H         1 UNK         0.0000 
  11860 H(9)       48.6452  147.9067   21.4570 H         1 UNK         0.0000 
  11861 O(1)       54.0457  139.1845   16.5945 O.3       1 UNK         0.0000 
  11862 O(2)       56.0436  145.3533   16.7103 O.2       1 UNK         0.0000 
  11863 N(1)       53.8624  144.7489   16.5226 N.am      1 UNK         0.0000 
  11864 C(1)       53.9619  143.3404   16.5738 C.ar      1 UNK         0.0000 
  11865 C(2)       55.0440  142.6522   17.1221 C.ar      1 UNK         0.0000 
  11866 C(3)       55.0511  141.2604   17.1257 C.ar      1 UNK         0.0000 
  11867 C(4)       53.9810  140.5458   16.5933 C.ar      1 UNK         0.0000 
  11868 C(5)       52.8854  141.2337   16.0731 C.ar      1 UNK         0.0000 
  11869 C(6)       52.8801  142.6212   16.0644 C.ar      1 UNK         0.0000 
  11870 C(7)       54.8532  145.6542   16.5694 C.2       1 UNK         0.0000 
  11871 C(8)       54.4123  147.0883   16.4484 C.3       1 UNK         0.0000 
  11872 H(1)       55.8846  143.1947   17.5368 H         1 UNK         0.0000 
  11873 H(2)       55.9019  140.7439   17.5527 H         1 UNK         0.0000 
  11874 H(3)       52.0423  140.6845   15.6728 H         1 UNK         0.0000 
  11875 H(4)       52.0295  143.1548   15.6585 H         1 UNK         0.0000 
  11876 H(5)       53.1723  138.8019   16.4465 H         1 UNK         0.0000 
  11877 H(6)       52.9365  145.1123   16.3534 H         1 UNK         0.0000 
  11878 H(7)       54.4906  147.5514   17.3976 H         1 UNK         0.0000 
  11879 H(8)       53.4156  147.1864   16.1044 H         1 UNK         0.0000 
  11880 H(9)       55.0928  147.6060   15.8236 H         1 UNK         0.0000 
  11881 O(1)       49.7119  136.6998   22.6641 O.3       1 UNK         0.0000 
  11882 O(2)       51.7097  137.9399   16.6201 O.2       1 UNK         0.0000 
  11883 N(1)       49.5285  137.9906   17.2510 N.am      1 UNK         0.0000 
  11884 C(1)       49.6280  137.6316   18.6139 C.ar      1 UNK         0.0000 
  11885 C(2)       50.7101  136.9458   19.1651 C.ar      1 UNK         0.0000 
  11886 C(3)       50.7172  136.6370   20.5223 C.ar      1 UNK         0.0000 
  11887 C(4)       49.6471  136.9997   21.3362 C.ar      1 UNK         0.0000 
  11888 C(5)       48.5515  137.6580   20.7791 C.ar      1 UNK         0.0000 
  11889 C(6)       48.5462  137.9709   19.4273 C.ar      1 UNK         0.0000 
  11890 C(7)       50.5193  138.1434   16.3575 C.2       1 UNK         0.0000 
  11891 C(8)       50.0784  138.5760   14.9848 C.3       1 UNK         0.0000 
  11892 H(1)       51.5507  136.6601   18.5448 H         1 UNK         0.0000 
  11893 H(2)       51.5680  136.1071   20.9325 H         1 UNK         0.0000 
  11894 H(3)       47.7084  137.9281   21.4028 H         1 UNK         0.0000 
  11895 H(4)       47.6956  138.4840   18.9958 H         1 UNK         0.0000 
  11896 H(5)       48.8384  136.7604   23.0699 H         1 UNK         0.0000 
  11897 H(6)       48.6026  138.2353   16.9335 H         1 UNK         0.0000 
  11898 H(7)       50.1567  137.7516   14.3248 H         1 UNK         0.0000 
  11899 H(8)       49.0817  138.9332   14.9645 H         1 UNK         0.0000 
  11900 H(9)       50.7589  139.2991   14.6168 H         1 UNK         0.0000 
  11901 O(1)       52.4354  148.0213   19.4793 O.3       1 UNK         0.0000 
  11902 O(2)       50.4375  141.8526   19.3635 O.2       1 UNK         0.0000 
  11903 N(1)       52.6187  142.4570   19.5512 N.am      1 UNK         0.0000 
  11904 C(1)       52.5192  143.8654   19.5000 C.ar      1 UNK         0.0000 
  11905 C(2)       51.4371  144.5536   18.9517 C.ar      1 UNK         0.0000 
  11906 C(3)       51.4300  145.9454   18.9482 C.ar      1 UNK         0.0000 
  11907 C(4)       52.5001  146.6600   19.4805 C.ar      1 UNK         0.0000 
  11908 C(5)       53.5957  145.9721   20.0007 C.ar      1 UNK         0.0000 
  11909 C(6)       53.6010  144.5846   20.0094 C.ar      1 UNK         0.0000 
  11910 C(7)       51.6279  141.5516   19.5044 C.2       1 UNK         0.0000 
  11911 C(8)       52.0688  140.1175   19.6254 C.3       1 UNK         0.0000 
  11912 H(1)       50.5965  144.0111   18.5370 H         1 UNK         0.0000 
  11913 H(2)       50.5792  146.4619   18.5211 H         1 UNK         0.0000 
  11914 H(3)       54.4388  146.5214   20.4010 H         1 UNK         0.0000 
  11915 H(4)       54.4516  144.0510   20.4154 H         1 UNK         0.0000 
  11916 H(5)       53.3088  148.4039   19.6273 H         1 UNK         0.0000 
  11917 H(6)       53.5447  142.0935   19.7204 H         1 UNK         0.0000 
  11918 H(7)       51.9905  139.6544   18.6762 H         1 UNK         0.0000 
  11919 H(8)       53.0655  140.0194   19.9694 H         1 UNK         0.0000 
  11920 H(9)       51.3883  139.5998   20.2502 H         1 UNK         0.0000 
  11921 O(1)       48.1015  141.5546   20.5721 O.3       1 UNK         0.0000 
  11922 O(2)       46.1037  140.3145   26.6161 O.2       1 UNK         0.0000 
  11923 N(1)       48.2848  140.2639   25.9852 N.am      1 UNK         0.0000 
  11924 C(1)       48.1853  140.6228   24.6223 C.ar      1 UNK         0.0000 
  11925 C(2)       47.1032  141.3087   24.0711 C.ar      1 UNK         0.0000 
  11926 C(3)       47.0962  141.6174   22.7140 C.ar      1 UNK         0.0000 
  11927 C(4)       48.1662  141.2548   21.9000 C.ar      1 UNK         0.0000 
  11928 C(5)       49.2618  140.5964   22.4571 C.ar      1 UNK         0.0000 
  11929 C(6)       49.2671  140.2835   23.8089 C.ar      1 UNK         0.0000 
  11930 C(7)       47.2940  140.1111   26.8787 C.2       1 UNK         0.0000 
  11931 C(8)       47.7349  139.6784   28.2514 C.3       1 UNK         0.0000 
  11932 H(1)       46.2627  141.5943   24.6914 H         1 UNK         0.0000 
  11933 H(2)       46.2453  142.1474   22.3037 H         1 UNK         0.0000 
  11934 H(3)       50.1050  140.3263   21.8334 H         1 UNK         0.0000 
  11935 H(4)       50.1177  139.7705   24.2404 H         1 UNK         0.0000 
  11936 H(5)       48.9749  141.4941   20.1663 H         1 UNK         0.0000 
  11937 H(6)       49.2108  140.0191   26.3027 H         1 UNK         0.0000 
  11938 H(7)       47.6566  140.5029   28.9114 H         1 UNK         0.0000 
  11939 H(8)       48.7317  139.3213   28.2717 H         1 UNK         0.0000 
  11940 H(9)       47.0544  138.9553   28.6194 H         1 UNK         0.0000 
  11941 O(1)       46.9687  144.9154   23.7569 O.3       1 UNK         0.0000 
  11942 O(2)       48.9666  151.0842   23.8727 O.2       1 UNK         0.0000 
  11943 N(1)       46.7854  150.4798   23.6850 N.am      1 UNK         0.0000 
  11944 C(1)       46.8849  149.0714   23.7362 C.ar      1 UNK         0.0000 
  11945 C(2)       47.9670  148.3832   24.2845 C.ar      1 UNK         0.0000 
  11946 C(3)       47.9741  146.9914   24.2881 C.ar      1 UNK         0.0000 
  11947 C(4)       46.9040  146.2767   23.7557 C.ar      1 UNK         0.0000 
  11948 C(5)       45.8084  146.9647   23.2355 C.ar      1 UNK         0.0000 
  11949 C(6)       45.8031  148.3522   23.2268 C.ar      1 UNK         0.0000 
  11950 C(7)       47.7762  151.3851   23.7318 C.2       1 UNK         0.0000 
  11951 C(8)       47.3353  152.8193   23.6108 C.3       1 UNK         0.0000 
  11952 H(1)       48.8076  148.9257   24.6992 H         1 UNK         0.0000 
  11953 H(2)       48.8249  146.4749   24.7151 H         1 UNK         0.0000 
  11954 H(3)       44.9653  146.4154   22.8352 H         1 UNK         0.0000 
  11955 H(4)       44.9525  148.8857   22.8209 H         1 UNK         0.0000 
  11956 H(5)       46.0953  144.5328   23.6089 H         1 UNK         0.0000 
  11957 H(6)       45.8595  150.8433   23.5158 H         1 UNK         0.0000 
  11958 H(7)       47.4136  153.2824   24.5600 H         1 UNK         0.0000 
  11959 H(8)       46.3386  152.9174   23.2668 H         1 UNK         0.0000 
  11960 H(9)       48.0158  153.3369   22.9860 H         1 UNK         0.0000 
  11961 O(1)       51.3026  139.9202    8.3393 O.3       1 UNK         0.0000 
  11962 O(2)       53.3005  141.1603    2.2953 O.2       1 UNK         0.0000 
  11963 N(1)       51.1193  141.2110    2.9262 N.am      1 UNK         0.0000 
  11964 C(1)       51.2188  140.8520    4.2891 C.ar      1 UNK         0.0000 
  11965 C(2)       52.3009  140.1662    4.8403 C.ar      1 UNK         0.0000 
  11966 C(3)       52.3079  139.8574    6.1975 C.ar      1 UNK         0.0000 
  11967 C(4)       51.2379  140.2201    7.0114 C.ar      1 UNK         0.0000 
  11968 C(5)       50.1423  140.8784    6.4543 C.ar      1 UNK         0.0000 
  11969 C(6)       50.1370  141.1913    5.1025 C.ar      1 UNK         0.0000 
  11970 C(7)       52.1101  141.3638    2.0327 C.2       1 UNK         0.0000 
  11971 C(8)       51.6692  141.7964    0.6600 C.3       1 UNK         0.0000 
  11972 H(1)       53.1415  139.8805    4.2200 H         1 UNK         0.0000 
  11973 H(2)       53.1588  139.3275    6.6077 H         1 UNK         0.0000 
  11974 H(3)       49.2991  141.1485    7.0780 H         1 UNK         0.0000 
  11975 H(4)       49.2864  141.7044    4.6710 H         1 UNK         0.0000 
  11976 H(5)       50.4292  139.9808    8.7451 H         1 UNK         0.0000 
  11977 H(6)       50.1933  141.4557    2.6087 H         1 UNK         0.0000 
  11978 H(7)       51.7475  140.9720    0.0000 H         1 UNK         0.0000 
  11979 H(8)       50.6724  142.1536    0.6397 H         1 UNK         0.0000 
  11980 H(9)       52.3497  142.5195    0.2920 H         1 UNK         0.0000 
  11981 O(1)       54.0261  151.2417    5.1545 O.3       1 UNK         0.0000 
  11982 O(2)       52.0283  145.0729    5.0387 O.2       1 UNK         0.0000 
  11983 N(1)       54.2095  145.6774    5.2264 N.am      1 UNK         0.0000 
  11984 C(1)       54.1100  147.0858    5.1752 C.ar      1 UNK         0.0000 
  11985 C(2)       53.0279  147.7740    4.6269 C.ar      1 UNK         0.0000 
  11986 C(3)       53.0208  149.1658    4.6234 C.ar      1 UNK         0.0000 
  11987 C(4)       54.0909  149.8804    5.1557 C.ar      1 UNK         0.0000 
  11988 C(5)       55.1865  149.1925    5.6759 C.ar      1 UNK         0.0000 
  11989 C(6)       55.1918  147.8050    5.6846 C.ar      1 UNK         0.0000 
  11990 C(7)       53.2187  144.7720    5.1796 C.2       1 UNK         0.0000 
  11991 C(8)       53.6596  143.3379    5.3006 C.3       1 UNK         0.0000 
  11992 H(1)       52.1873  147.2315    4.2122 H         1 UNK         0.0000 
  11993 H(2)       52.1700  149.6823    4.1963 H         1 UNK         0.0000 
  11994 H(3)       56.0296  149.7418    6.0762 H         1 UNK         0.0000 
  11995 H(4)       56.0424  147.2714    6.0906 H         1 UNK         0.0000 
  11996 H(5)       54.8996  151.6243    5.3025 H         1 UNK         0.0000 
  11997 H(6)       55.1354  145.3139    5.3956 H         1 UNK         0.0000 
  11998 H(7)       53.5813  142.8748    4.3514 H         1 UNK         0.0000 
  11999 H(8)       54.6563  143.2398    5.6446 H         1 UNK         0.0000 
  12000 H(9)       52.9791  142.8202    5.9254 H         1 UNK         0.0000 
  12001 O(1)       42.4522   12.6340    6.2473 O.3       1 UNK         0.0000 
  12002 O(2)       40.4544   11.3940   12.2913 O.2       1 UNK         0.0000 
  12003 N(1)       42.6355   11.3433   11.6604 N.am      1 UNK         0.0000 
  12004 C(1)       42.5361   11.7022   10.2975 C.ar      1 UNK         0.0000 
  12005 C(2)       41.4539   12.3881    9.7463 C.ar      1 UNK         0.0000 
  12006 C(3)       41.4469   12.6969    8.3892 C.ar      1 UNK         0.0000 
  12007 C(4)       42.5169   12.3342    7.5752 C.ar      1 UNK         0.0000 
  12008 C(5)       43.6125   11.6758    8.1323 C.ar      1 UNK         0.0000 
  12009 C(6)       43.6178   11.3630    9.4841 C.ar      1 UNK         0.0000 
  12010 C(7)       41.6448   11.1905   12.5539 C.2       1 UNK         0.0000 
  12011 C(8)       42.0856   10.7579   13.9266 C.3       1 UNK         0.0000 
  12012 H(1)       40.6134   12.6738   10.3666 H         1 UNK         0.0000 
  12013 H(2)       40.5961   13.2268    7.9789 H         1 UNK         0.0000 
  12014 H(3)       44.4557   11.4057    7.5086 H         1 UNK         0.0000 
  12015 H(4)       44.4684   10.8499    9.9156 H         1 UNK         0.0000 
  12016 H(5)       43.3256   12.5735    5.8415 H         1 UNK         0.0000 
  12017 H(6)       43.5615   11.0986   11.9779 H         1 UNK         0.0000 
  12018 H(7)       42.0073   11.5823   14.5866 H         1 UNK         0.0000 
  12019 H(8)       43.0824   10.4007   13.9469 H         1 UNK         0.0000 
  12020 H(9)       41.4051   10.0347   14.2946 H         1 UNK         0.0000 
  12021 O(1)       46.8057    1.3125    9.4321 O.3       1 UNK         0.0000 
  12022 O(2)       48.8035    7.4813    9.5479 O.2       1 UNK         0.0000 
  12023 N(1)       46.6224    6.8769    9.3602 N.am      1 UNK         0.0000 
  12024 C(1)       46.7218    5.4685    9.4114 C.ar      1 UNK         0.0000 
  12025 C(2)       47.8040    4.7803    9.9597 C.ar      1 UNK         0.0000 
  12026 C(3)       47.8110    3.3885    9.9633 C.ar      1 UNK         0.0000 
  12027 C(4)       46.7410    2.6738    9.4309 C.ar      1 UNK         0.0000 
  12028 C(5)       45.6454    3.3618    8.9107 C.ar      1 UNK         0.0000 
  12029 C(6)       45.6401    4.7493    8.9020 C.ar      1 UNK         0.0000 
  12030 C(7)       47.6131    7.7822    9.4070 C.2       1 UNK         0.0000 
  12031 C(8)       47.1723    9.2163    9.2860 C.3       1 UNK         0.0000 
  12032 H(1)       48.6445    5.3228   10.3744 H         1 UNK         0.0000 
  12033 H(2)       48.6618    2.8720   10.3903 H         1 UNK         0.0000 
  12034 H(3)       44.8022    2.8125    8.5104 H         1 UNK         0.0000 
  12035 H(4)       44.7894    5.2828    8.4961 H         1 UNK         0.0000 
  12036 H(5)       45.9323    0.9299    9.2841 H         1 UNK         0.0000 
  12037 H(6)       45.6964    7.2404    9.1910 H         1 UNK         0.0000 
  12038 H(7)       47.2505    9.6795   10.2352 H         1 UNK         0.0000 
  12039 H(8)       46.1755    9.3145    8.9420 H         1 UNK         0.0000 
  12040 H(9)       47.8528    9.7340    8.6612 H         1 UNK         0.0000 
  12041 O(1)       36.9856   13.5102   15.5017 O.3       1 UNK         0.0000 
  12042 O(2)       38.9834   14.7503    9.4577 O.2       1 UNK         0.0000 
  12043 N(1)       36.8023   14.8009   10.0886 N.am      1 UNK         0.0000 
  12044 C(1)       36.9017   14.4420   11.4515 C.ar      1 UNK         0.0000 
  12045 C(2)       37.9839   13.7561   12.0027 C.ar      1 UNK         0.0000 
  12046 C(3)       37.9909   13.4474   13.3599 C.ar      1 UNK         0.0000 
  12047 C(4)       36.9209   13.8100   14.1738 C.ar      1 UNK         0.0000 
  12048 C(5)       35.8253   14.4684   13.6167 C.ar      1 UNK         0.0000 
  12049 C(6)       35.8200   14.7813   12.2649 C.ar      1 UNK         0.0000 
  12050 C(7)       37.7930   14.9538    9.1951 C.2       1 UNK         0.0000 
  12051 C(8)       37.3522   15.3864    7.8224 C.3       1 UNK         0.0000 
  12052 H(1)       38.8244   13.4705   11.3824 H         1 UNK         0.0000 
  12053 H(2)       38.8417   12.9175   13.7701 H         1 UNK         0.0000 
  12054 H(3)       34.9821   14.7385   14.2404 H         1 UNK         0.0000 
  12055 H(4)       34.9693   15.2944   11.8334 H         1 UNK         0.0000 
  12056 H(5)       36.1121   13.5707   15.9075 H         1 UNK         0.0000 
  12057 H(6)       35.8763   15.0457    9.7711 H         1 UNK         0.0000 
  12058 H(7)       37.4304   14.5620    7.1624 H         1 UNK         0.0000 
  12059 H(8)       36.3554   15.7436    7.8021 H         1 UNK         0.0000 
  12060 H(9)       38.0327   16.1095    7.4544 H         1 UNK         0.0000 
  12061 O(1)       38.1183   10.1494   12.3169 O.3       1 UNK         0.0000 
  12062 O(2)       36.1205    3.9806   12.2011 O.2       1 UNK         0.0000 
  12063 N(1)       38.3016    4.5850   12.3888 N.am      1 UNK         0.0000 
  12064 C(1)       38.2022    5.9935   12.3376 C.ar      1 UNK         0.0000 
  12065 C(2)       37.1200    6.6817   11.7893 C.ar      1 UNK         0.0000 
  12066 C(3)       37.1130    8.0735   11.7858 C.ar      1 UNK         0.0000 
  12067 C(4)       38.1830    8.7881   12.3181 C.ar      1 UNK         0.0000 
  12068 C(5)       39.2786    8.1002   12.8383 C.ar      1 UNK         0.0000 
  12069 C(6)       39.2839    6.7126   12.8470 C.ar      1 UNK         0.0000 
  12070 C(7)       37.3109    3.6797   12.3420 C.2       1 UNK         0.0000 
  12071 C(8)       37.7517    2.2456   12.4630 C.3       1 UNK         0.0000 
  12072 H(1)       36.2795    6.1391   11.3746 H         1 UNK         0.0000 
  12073 H(2)       36.2622    8.5900   11.3587 H         1 UNK         0.0000 
  12074 H(3)       40.1218    8.6494   13.2386 H         1 UNK         0.0000 
  12075 H(4)       40.1346    6.1791   13.2530 H         1 UNK         0.0000 
  12076 H(5)       38.9917   10.5320   12.4649 H         1 UNK         0.0000 
  12077 H(6)       39.2276    4.2215   12.5580 H         1 UNK         0.0000 
  12078 H(7)       37.6735    1.7825   11.5138 H         1 UNK         0.0000 
  12079 H(8)       38.7485    2.1474   12.8070 H         1 UNK         0.0000 
  12080 H(9)       37.0712    1.7279   13.0878 H         1 UNK         0.0000 
  12081 O(1)       42.4522   18.3650   13.4097 O.3       1 UNK         0.0000 
  12082 O(2)       40.4544   17.1249   19.4537 O.2       1 UNK         0.0000 
  12083 N(1)       42.6355   17.0743   18.8228 N.am      1 UNK         0.0000 
  12084 C(1)       42.5361   17.4332   17.4599 C.ar      1 UNK         0.0000 
  12085 C(2)       41.4539   18.1191   16.9087 C.ar      1 UNK         0.0000 
  12086 C(3)       41.4469   18.4278   15.5516 C.ar      1 UNK         0.0000 
  12087 C(4)       42.5169   18.0652   14.7376 C.ar      1 UNK         0.0000 
  12088 C(5)       43.6125   17.4068   15.2947 C.ar      1 UNK         0.0000 
  12089 C(6)       43.6178   17.0939   16.6465 C.ar      1 UNK         0.0000 
  12090 C(7)       41.6448   16.9215   19.7163 C.2       1 UNK         0.0000 
  12091 C(8)       42.0856   16.4888   21.0890 C.3       1 UNK         0.0000 
  12092 H(1)       40.6134   18.4047   17.5290 H         1 UNK         0.0000 
  12093 H(2)       40.5961   18.9577   15.1413 H         1 UNK         0.0000 
  12094 H(3)       44.4557   17.1367   14.6710 H         1 UNK         0.0000 
  12095 H(4)       44.4684   16.5809   17.0780 H         1 UNK         0.0000 
  12096 H(5)       43.3256   18.3045   13.0039 H         1 UNK         0.0000 
  12097 H(6)       43.5615   16.8295   19.1403 H         1 UNK         0.0000 
  12098 H(7)       42.0073   17.3133   21.7490 H         1 UNK         0.0000 
  12099 H(8)       43.0824   16.1317   21.1093 H         1 UNK         0.0000 
  12100 H(9)       41.4051   15.7657   21.4570 H         1 UNK         0.0000 
  12101 O(1)       46.8057    7.0435   16.5945 O.3       1 UNK         0.0000 
  12102 O(2)       48.8035   13.2123   16.7103 O.2       1 UNK         0.0000 
  12103 N(1)       46.6224   12.6079   16.5226 N.am      1 UNK         0.0000 
  12104 C(1)       46.7218   11.1994   16.5738 C.ar      1 UNK         0.0000 
  12105 C(2)       47.8040   10.5112   17.1221 C.ar      1 UNK         0.0000 
  12106 C(3)       47.8110    9.1194   17.1257 C.ar      1 UNK         0.0000 
  12107 C(4)       46.7410    8.4048   16.5933 C.ar      1 UNK         0.0000 
  12108 C(5)       45.6454    9.0927   16.0731 C.ar      1 UNK         0.0000 
  12109 C(6)       45.6401   10.4803   16.0644 C.ar      1 UNK         0.0000 
  12110 C(7)       47.6131   13.5132   16.5694 C.2       1 UNK         0.0000 
  12111 C(8)       47.1723   14.9473   16.4484 C.3       1 UNK         0.0000 
  12112 H(1)       48.6445   11.0538   17.5368 H         1 UNK         0.0000 
  12113 H(2)       48.6618    8.6029   17.5527 H         1 UNK         0.0000 
  12114 H(3)       44.8022    8.5435   15.6728 H         1 UNK         0.0000 
  12115 H(4)       44.7894   11.0138   15.6585 H         1 UNK         0.0000 
  12116 H(5)       45.9323    6.6609   16.4465 H         1 UNK         0.0000 
  12117 H(6)       45.6964   12.9713   16.3534 H         1 UNK         0.0000 
  12118 H(7)       47.2505   15.4104   17.3976 H         1 UNK         0.0000 
  12119 H(8)       46.1755   15.0455   16.1044 H         1 UNK         0.0000 
  12120 H(9)       47.8528   15.4650   15.8236 H         1 UNK         0.0000 
  12121 O(1)       42.4718    4.5589   22.6641 O.3       1 UNK         0.0000 
  12122 O(2)       44.4696    5.7989   16.6201 O.2       1 UNK         0.0000 
  12123 N(1)       42.2885    5.8496   17.2510 N.am      1 UNK         0.0000 
  12124 C(1)       42.3879    5.4907   18.6139 C.ar      1 UNK         0.0000 
  12125 C(2)       43.4701    4.8048   19.1651 C.ar      1 UNK         0.0000 
  12126 C(3)       43.4771    4.4960   20.5223 C.ar      1 UNK         0.0000 
  12127 C(4)       42.4071    4.8587   21.3362 C.ar      1 UNK         0.0000 
  12128 C(5)       41.3115    5.5171   20.7791 C.ar      1 UNK         0.0000 
  12129 C(6)       41.3062    5.8299   19.4273 C.ar      1 UNK         0.0000 
  12130 C(7)       43.2792    6.0024   16.3575 C.2       1 UNK         0.0000 
  12131 C(8)       42.8384    6.4350   14.9848 C.3       1 UNK         0.0000 
  12132 H(1)       44.3106    4.5191   18.5448 H         1 UNK         0.0000 
  12133 H(2)       44.3279    3.9661   20.9325 H         1 UNK         0.0000 
  12134 H(3)       40.4683    5.7872   21.4028 H         1 UNK         0.0000 
  12135 H(4)       40.4556    6.3430   18.9958 H         1 UNK         0.0000 
  12136 H(5)       41.5984    4.6194   23.0699 H         1 UNK         0.0000 
  12137 H(6)       41.3625    6.0943   16.9335 H         1 UNK         0.0000 
  12138 H(7)       42.9167    5.6106   14.3248 H         1 UNK         0.0000 
  12139 H(8)       41.8416    6.7922   14.9645 H         1 UNK         0.0000 
  12140 H(9)       43.5189    7.1582   14.6168 H         1 UNK         0.0000 
  12141 O(1)       45.1953   15.8804   19.4793 O.3       1 UNK         0.0000 
  12142 O(2)       43.1975    9.7116   19.3635 O.2       1 UNK         0.0000 
  12143 N(1)       45.3786   10.3160   19.5512 N.am      1 UNK         0.0000 
  12144 C(1)       45.2792   11.7244   19.5000 C.ar      1 UNK         0.0000 
  12145 C(2)       44.1970   12.4126   18.9517 C.ar      1 UNK         0.0000 
  12146 C(3)       44.1900   13.8044   18.9482 C.ar      1 UNK         0.0000 
  12147 C(4)       45.2600   14.5191   19.4805 C.ar      1 UNK         0.0000 
  12148 C(5)       46.3556   13.8311   20.0007 C.ar      1 UNK         0.0000 
  12149 C(6)       46.3609   12.4436   20.0094 C.ar      1 UNK         0.0000 
  12150 C(7)       44.3879    9.4107   19.5044 C.2       1 UNK         0.0000 
  12151 C(8)       44.8287    7.9766   19.6254 C.3       1 UNK         0.0000 
  12152 H(1)       43.3565   11.8701   18.5370 H         1 UNK         0.0000 
  12153 H(2)       43.3392   14.3209   18.5211 H         1 UNK         0.0000 
  12154 H(3)       47.1988   14.3804   20.4010 H         1 UNK         0.0000 
  12155 H(4)       47.2116   11.9101   20.4154 H         1 UNK         0.0000 
  12156 H(5)       46.0687   16.2630   19.6273 H         1 UNK         0.0000 
  12157 H(6)       46.3046    9.9525   19.7204 H         1 UNK         0.0000 
  12158 H(7)       44.7505    7.5134   18.6762 H         1 UNK         0.0000 
  12159 H(8)       45.8255    7.8784   19.9694 H         1 UNK         0.0000 
  12160 H(9)       44.1482    7.4589   20.2502 H         1 UNK         0.0000 
  12161 O(1)       40.8614    9.4136   20.5721 O.3       1 UNK         0.0000 
  12162 O(2)       38.8636    8.1736   26.6161 O.2       1 UNK         0.0000 
  12163 N(1)       41.0447    8.1229   25.9852 N.am      1 UNK         0.0000 
  12164 C(1)       40.9453    8.4818   24.6223 C.ar      1 UNK         0.0000 
  12165 C(2)       39.8631    9.1677   24.0711 C.ar      1 UNK         0.0000 
  12166 C(3)       39.8561    9.4765   22.7140 C.ar      1 UNK         0.0000 
  12167 C(4)       40.9261    9.1138   21.9000 C.ar      1 UNK         0.0000 
  12168 C(5)       42.0217    8.4554   22.4571 C.ar      1 UNK         0.0000 
  12169 C(6)       42.0270    8.1426   23.8089 C.ar      1 UNK         0.0000 
  12170 C(7)       40.0540    7.9701   26.8787 C.2       1 UNK         0.0000 
  12171 C(8)       40.4948    7.5375   28.2514 C.3       1 UNK         0.0000 
  12172 H(1)       39.0226    9.4534   24.6914 H         1 UNK         0.0000 
  12173 H(2)       39.0053   10.0064   22.3037 H         1 UNK         0.0000 
  12174 H(3)       42.8649    8.1853   21.8334 H         1 UNK         0.0000 
  12175 H(4)       42.8777    7.6295   24.2404 H         1 UNK         0.0000 
  12176 H(5)       41.7349    9.3531   20.1663 H         1 UNK         0.0000 
  12177 H(6)       41.9707    7.8782   26.3027 H         1 UNK         0.0000 
  12178 H(7)       40.4166    8.3619   28.9114 H         1 UNK         0.0000 
  12179 H(8)       41.4916    7.1803   28.2717 H         1 UNK         0.0000 
  12180 H(9)       39.8143    6.8143   28.6194 H         1 UNK         0.0000 
  12181 O(1)       39.7287   12.7745   23.7569 O.3       1 UNK         0.0000 
  12182 O(2)       41.7265   18.9433   23.8727 O.2       1 UNK         0.0000 
  12183 N(1)       39.5454   18.3389   23.6850 N.am      1 UNK         0.0000 
  12184 C(1)       39.6448   16.9304   23.7362 C.ar      1 UNK         0.0000 
  12185 C(2)       40.7270   16.2422   24.2845 C.ar      1 UNK         0.0000 
  12186 C(3)       40.7340   14.8504   24.2881 C.ar      1 UNK         0.0000 
  12187 C(4)       39.6640   14.1358   23.7557 C.ar      1 UNK         0.0000 
  12188 C(5)       38.5684   14.8237   23.2355 C.ar      1 UNK         0.0000 
  12189 C(6)       38.5631   16.2112   23.2268 C.ar      1 UNK         0.0000 
  12190 C(7)       40.5361   19.2442   23.7318 C.2       1 UNK         0.0000 
  12191 C(8)       40.0953   20.6783   23.6108 C.3       1 UNK         0.0000 
  12192 H(1)       41.5675   16.7847   24.6992 H         1 UNK         0.0000 
  12193 H(2)       41.5848   14.3339   24.7151 H         1 UNK         0.0000 
  12194 H(3)       37.7252   14.2744   22.8352 H         1 UNK         0.0000 
  12195 H(4)       37.7124   16.7448   22.8209 H         1 UNK         0.0000 
  12196 H(5)       38.8553   12.3919   23.6089 H         1 UNK         0.0000 
  12197 H(6)       38.6194   18.7023   23.5158 H         1 UNK         0.0000 
  12198 H(7)       40.1735   21.1414   24.5600 H         1 UNK         0.0000 
  12199 H(8)       39.0985   20.7764   23.2668 H         1 UNK         0.0000 
  12200 H(9)       40.7758   21.1960   22.9860 H         1 UNK         0.0000 
  12201 O(1)       44.0626    7.7793    8.3393 O.3       1 UNK         0.0000 
  12202 O(2)       46.0604    9.0193    2.2953 O.2       1 UNK         0.0000 
  12203 N(1)       43.8793    9.0700    2.9262 N.am      1 UNK         0.0000 
  12204 C(1)       43.9787    8.7111    4.2891 C.ar      1 UNK         0.0000 
  12205 C(2)       45.0609    8.0252    4.8403 C.ar      1 UNK         0.0000 
  12206 C(3)       45.0679    7.7164    6.1975 C.ar      1 UNK         0.0000 
  12207 C(4)       43.9979    8.0791    7.0114 C.ar      1 UNK         0.0000 
  12208 C(5)       42.9023    8.7375    6.4543 C.ar      1 UNK         0.0000 
  12209 C(6)       42.8970    9.0503    5.1025 C.ar      1 UNK         0.0000 
  12210 C(7)       44.8700    9.2228    2.0327 C.2       1 UNK         0.0000 
  12211 C(8)       44.4292    9.6554    0.6600 C.3       1 UNK         0.0000 
  12212 H(1)       45.9014    7.7395    4.2200 H         1 UNK         0.0000 
  12213 H(2)       45.9187    7.1865    6.6077 H         1 UNK         0.0000 
  12214 H(3)       42.0591    9.0076    7.0780 H         1 UNK         0.0000 
  12215 H(4)       42.0463    9.5634    4.6710 H         1 UNK         0.0000 
  12216 H(5)       43.1891    7.8398    8.7451 H         1 UNK         0.0000 
  12217 H(6)       42.9533    9.3147    2.6087 H         1 UNK         0.0000 
  12218 H(7)       44.5074    8.8310    0.0000 H         1 UNK         0.0000 
  12219 H(8)       43.4324   10.0126    0.6397 H         1 UNK         0.0000 
  12220 H(9)       45.1097   10.3786    0.2920 H         1 UNK         0.0000 
  12221 O(1)       46.7861   19.1008    5.1545 O.3       1 UNK         0.0000 
  12222 O(2)       44.7883   12.9320    5.0387 O.2       1 UNK         0.0000 
  12223 N(1)       46.9694   13.5364    5.2264 N.am      1 UNK         0.0000 
  12224 C(1)       46.8700   14.9448    5.1752 C.ar      1 UNK         0.0000 
  12225 C(2)       45.7878   15.6330    4.6269 C.ar      1 UNK         0.0000 
  12226 C(3)       45.7808   17.0248    4.6234 C.ar      1 UNK         0.0000 
  12227 C(4)       46.8508   17.7395    5.1557 C.ar      1 UNK         0.0000 
  12228 C(5)       47.9464   17.0515    5.6759 C.ar      1 UNK         0.0000 
  12229 C(6)       47.9517   15.6640    5.6846 C.ar      1 UNK         0.0000 
  12230 C(7)       45.9786   12.6311    5.1796 C.2       1 UNK         0.0000 
  12231 C(8)       46.4195   11.1969    5.3006 C.3       1 UNK         0.0000 
  12232 H(1)       44.9473   15.0905    4.2122 H         1 UNK         0.0000 
  12233 H(2)       44.9300   17.5413    4.1963 H         1 UNK         0.0000 
  12234 H(3)       48.7896   17.6008    6.0762 H         1 UNK         0.0000 
  12235 H(4)       48.8023   15.1305    6.0906 H         1 UNK         0.0000 
  12236 H(5)       47.6595   19.4834    5.3025 H         1 UNK         0.0000 
  12237 H(6)       47.8954   13.1729    5.3956 H         1 UNK         0.0000 
  12238 H(7)       46.3412   10.7338    4.3514 H         1 UNK         0.0000 
  12239 H(8)       47.4163   11.0988    5.6446 H         1 UNK         0.0000 
  12240 H(9)       45.7390   10.6793    5.9254 H         1 UNK         0.0000 
  12241 O(1)       44.0430   27.3164    6.2473 O.3       1 UNK         0.0000 
  12242 O(2)       42.0452   26.0763   12.2913 O.2       1 UNK         0.0000 
  12243 N(1)       44.2263   26.0256   11.6604 N.am      1 UNK         0.0000 
  12244 C(1)       44.1269   26.3846   10.2975 C.ar      1 UNK         0.0000 
  12245 C(2)       43.0447   27.0704    9.7463 C.ar      1 UNK         0.0000 
  12246 C(3)       43.0377   27.3792    8.3892 C.ar      1 UNK         0.0000 
  12247 C(4)       44.1077   27.0165    7.5752 C.ar      1 UNK         0.0000 
  12248 C(5)       45.2033   26.3582    8.1323 C.ar      1 UNK         0.0000 
  12249 C(6)       45.2086   26.0453    9.4841 C.ar      1 UNK         0.0000 
  12250 C(7)       43.2355   25.8728   12.5539 C.2       1 UNK         0.0000 
  12251 C(8)       43.6764   25.4402   13.9266 C.3       1 UNK         0.0000 
  12252 H(1)       42.2042   27.3561   10.3666 H         1 UNK         0.0000 
  12253 H(2)       42.1869   27.9091    7.9789 H         1 UNK         0.0000 
  12254 H(3)       46.0465   26.0881    7.5086 H         1 UNK         0.0000 
  12255 H(4)       46.0592   25.5322    9.9156 H         1 UNK         0.0000 
  12256 H(5)       44.9164   27.2558    5.8415 H         1 UNK         0.0000 
  12257 H(6)       45.1523   25.7809   11.9779 H         1 UNK         0.0000 
  12258 H(7)       43.5981   26.2646   14.5866 H         1 UNK         0.0000 
  12259 H(8)       44.6732   25.0830   13.9469 H         1 UNK         0.0000 
  12260 H(9)       42.9959   24.7171   14.2946 H         1 UNK         0.0000 
  12261 O(1)       48.3965   15.9949    9.4321 O.3       1 UNK         0.0000 
  12262 O(2)       50.3943   22.1637    9.5479 O.2       1 UNK         0.0000 
  12263 N(1)       48.2131   21.5592    9.3602 N.am      1 UNK         0.0000 
  12264 C(1)       48.3126   20.1508    9.4114 C.ar      1 UNK         0.0000 
  12265 C(2)       49.3948   19.4626    9.9597 C.ar      1 UNK         0.0000 
  12266 C(3)       49.4018   18.0708    9.9633 C.ar      1 UNK         0.0000 
  12267 C(4)       48.3318   17.3562    9.4309 C.ar      1 UNK         0.0000 
  12268 C(5)       47.2362   18.0441    8.9107 C.ar      1 UNK         0.0000 
  12269 C(6)       47.2308   19.4316    8.9020 C.ar      1 UNK         0.0000 
  12270 C(7)       49.2039   22.4646    9.4070 C.2       1 UNK         0.0000 
  12271 C(8)       48.7631   23.8987    9.2860 C.3       1 UNK         0.0000 
  12272 H(1)       50.2353   20.0051   10.3744 H         1 UNK         0.0000 
  12273 H(2)       50.2526   17.5543   10.3903 H         1 UNK         0.0000 
  12274 H(3)       46.3930   17.4948    8.5104 H         1 UNK         0.0000 
  12275 H(4)       46.3802   19.9652    8.4961 H         1 UNK         0.0000 
  12276 H(5)       47.5230   15.6123    9.2841 H         1 UNK         0.0000 
  12277 H(6)       47.2872   21.9227    9.1910 H         1 UNK         0.0000 
  12278 H(7)       48.8413   24.3618   10.2352 H         1 UNK         0.0000 
  12279 H(8)       47.7663   23.9968    8.9420 H         1 UNK         0.0000 
  12280 H(9)       49.4435   24.4164    8.6612 H         1 UNK         0.0000 
  12281 O(1)       38.5764   28.1926   15.5017 O.3       1 UNK         0.0000 
  12282 O(2)       40.5742   29.4326    9.4577 O.2       1 UNK         0.0000 
  12283 N(1)       38.3930   29.4833   10.0886 N.am      1 UNK         0.0000 
  12284 C(1)       38.4925   29.1244   11.4515 C.ar      1 UNK         0.0000 
  12285 C(2)       39.5746   28.4385   12.0027 C.ar      1 UNK         0.0000 
  12286 C(3)       39.5817   28.1297   13.3599 C.ar      1 UNK         0.0000 
  12287 C(4)       38.5117   28.4924   14.1738 C.ar      1 UNK         0.0000 
  12288 C(5)       37.4160   29.1508   13.6167 C.ar      1 UNK         0.0000 
  12289 C(6)       37.4107   29.4636   12.2649 C.ar      1 UNK         0.0000 
  12290 C(7)       39.3838   29.6361    9.1951 C.2       1 UNK         0.0000 
  12291 C(8)       38.9430   30.0687    7.8224 C.3       1 UNK         0.0000 
  12292 H(1)       40.4152   28.1528   11.3824 H         1 UNK         0.0000 
  12293 H(2)       40.4325   27.5998   13.7701 H         1 UNK         0.0000 
  12294 H(3)       36.5729   29.4209   14.2404 H         1 UNK         0.0000 
  12295 H(4)       36.5601   29.9767   11.8334 H         1 UNK         0.0000 
  12296 H(5)       37.7029   28.2531   15.9075 H         1 UNK         0.0000 
  12297 H(6)       37.4671   29.7280    9.7711 H         1 UNK         0.0000 
  12298 H(7)       39.0212   29.2443    7.1624 H         1 UNK         0.0000 
  12299 H(8)       37.9462   30.4259    7.8021 H         1 UNK         0.0000 
  12300 H(9)       39.6234   30.7919    7.4544 H         1 UNK         0.0000 
  12301 O(1)       39.7091   24.8317   12.3169 O.3       1 UNK         0.0000 
  12302 O(2)       37.7113   18.6629   12.2011 O.2       1 UNK         0.0000 
  12303 N(1)       39.8924   19.2673   12.3888 N.am      1 UNK         0.0000 
  12304 C(1)       39.7930   20.6758   12.3376 C.ar      1 UNK         0.0000 
  12305 C(2)       38.7108   21.3640   11.7893 C.ar      1 UNK         0.0000 
  12306 C(3)       38.7038   22.7558   11.7858 C.ar      1 UNK         0.0000 
  12307 C(4)       39.7738   23.4704   12.3181 C.ar      1 UNK         0.0000 
  12308 C(5)       40.8694   22.7825   12.8383 C.ar      1 UNK         0.0000 
  12309 C(6)       40.8747   21.3950   12.8470 C.ar      1 UNK         0.0000 
  12310 C(7)       38.9016   18.3620   12.3420 C.2       1 UNK         0.0000 
  12311 C(8)       39.3425   16.9279   12.4630 C.3       1 UNK         0.0000 
  12312 H(1)       37.8703   20.8215   11.3746 H         1 UNK         0.0000 
  12313 H(2)       37.8530   23.2723   11.3587 H         1 UNK         0.0000 
  12314 H(3)       41.7126   23.3317   13.2386 H         1 UNK         0.0000 
  12315 H(4)       41.7253   20.8614   13.2530 H         1 UNK         0.0000 
  12316 H(5)       40.5825   25.2143   12.4649 H         1 UNK         0.0000 
  12317 H(6)       40.8184   18.9039   12.5580 H         1 UNK         0.0000 
  12318 H(7)       39.2642   16.4648   11.5138 H         1 UNK         0.0000 
  12319 H(8)       40.3393   16.8298   12.8070 H         1 UNK         0.0000 
  12320 H(9)       38.6620   16.4102   13.0878 H         1 UNK         0.0000 
  12321 O(1)       44.0430   33.0473   13.4097 O.3       1 UNK         0.0000 
  12322 O(2)       42.0452   31.8072   19.4537 O.2       1 UNK         0.0000 
  12323 N(1)       44.2263   31.7566   18.8228 N.am      1 UNK         0.0000 
  12324 C(1)       44.1269   32.1155   17.4599 C.ar      1 UNK         0.0000 
  12325 C(2)       43.0447   32.8014   16.9087 C.ar      1 UNK         0.0000 
  12326 C(3)       43.0377   33.1102   15.5516 C.ar      1 UNK         0.0000 
  12327 C(4)       44.1077   32.7475   14.7376 C.ar      1 UNK         0.0000 
  12328 C(5)       45.2033   32.0891   15.2947 C.ar      1 UNK         0.0000 
  12329 C(6)       45.2086   31.7763   16.6465 C.ar      1 UNK         0.0000 
  12330 C(7)       43.2355   31.6038   19.7163 C.2       1 UNK         0.0000 
  12331 C(8)       43.6764   31.1711   21.0890 C.3       1 UNK         0.0000 
  12332 H(1)       42.2042   33.0871   17.5290 H         1 UNK         0.0000 
  12333 H(2)       42.1869   33.6401   15.1413 H         1 UNK         0.0000 
  12334 H(3)       46.0465   31.8190   14.6710 H         1 UNK         0.0000 
  12335 H(4)       46.0592   31.2632   17.0780 H         1 UNK         0.0000 
  12336 H(5)       44.9164   32.9868   13.0039 H         1 UNK         0.0000 
  12337 H(6)       45.1523   31.5119   19.1403 H         1 UNK         0.0000 
  12338 H(7)       43.5981   31.9956   21.7490 H         1 UNK         0.0000 
  12339 H(8)       44.6732   30.8140   21.1093 H         1 UNK         0.0000 
  12340 H(9)       42.9959   30.4480   21.4570 H         1 UNK         0.0000 
  12341 O(1)       48.3965   21.7258   16.5945 O.3       1 UNK         0.0000 
  12342 O(2)       50.3943   27.8946   16.7103 O.2       1 UNK         0.0000 
  12343 N(1)       48.2131   27.2902   16.5226 N.am      1 UNK         0.0000 
  12344 C(1)       48.3126   25.8818   16.5738 C.ar      1 UNK         0.0000 
  12345 C(2)       49.3948   25.1936   17.1221 C.ar      1 UNK         0.0000 
  12346 C(3)       49.4018   23.8017   17.1257 C.ar      1 UNK         0.0000 
  12347 C(4)       48.3318   23.0871   16.5933 C.ar      1 UNK         0.0000 
  12348 C(5)       47.2362   23.7751   16.0731 C.ar      1 UNK         0.0000 
  12349 C(6)       47.2308   25.1626   16.0644 C.ar      1 UNK         0.0000 
  12350 C(7)       49.2039   28.1955   16.5694 C.2       1 UNK         0.0000 
  12351 C(8)       48.7631   29.6296   16.4484 C.3       1 UNK         0.0000 
  12352 H(1)       50.2353   25.7361   17.5368 H         1 UNK         0.0000 
  12353 H(2)       50.2526   23.2853   17.5527 H         1 UNK         0.0000 
  12354 H(3)       46.3930   23.2258   15.6728 H         1 UNK         0.0000 
  12355 H(4)       46.3802   25.6961   15.6585 H         1 UNK         0.0000 
  12356 H(5)       47.5230   21.3432   16.4465 H         1 UNK         0.0000 
  12357 H(6)       47.2872   27.6537   16.3534 H         1 UNK         0.0000 
  12358 H(7)       48.8413   30.0928   17.3976 H         1 UNK         0.0000 
  12359 H(8)       47.7663   29.7278   16.1044 H         1 UNK         0.0000 
  12360 H(9)       49.4435   30.1473   15.8236 H         1 UNK         0.0000 
  12361 O(1)       44.0626   19.2412   22.6641 O.3       1 UNK         0.0000 
  12362 O(2)       46.0604   20.4813   16.6201 O.2       1 UNK         0.0000 
  12363 N(1)       43.8793   20.5319   17.2510 N.am      1 UNK         0.0000 
  12364 C(1)       43.9787   20.1730   18.6139 C.ar      1 UNK         0.0000 
  12365 C(2)       45.0609   19.4871   19.1651 C.ar      1 UNK         0.0000 
  12366 C(3)       45.0679   19.1784   20.5223 C.ar      1 UNK         0.0000 
  12367 C(4)       43.9979   19.5410   21.3362 C.ar      1 UNK         0.0000 
  12368 C(5)       42.9023   20.1994   20.7791 C.ar      1 UNK         0.0000 
  12369 C(6)       42.8970   20.5123   19.4273 C.ar      1 UNK         0.0000 
  12370 C(7)       44.8700   20.6847   16.3575 C.2       1 UNK         0.0000 
  12371 C(8)       44.4292   21.1174   14.9848 C.3       1 UNK         0.0000 
  12372 H(1)       45.9014   19.2015   18.5448 H         1 UNK         0.0000 
  12373 H(2)       45.9187   18.6484   20.9325 H         1 UNK         0.0000 
  12374 H(3)       42.0591   20.4695   21.4028 H         1 UNK         0.0000 
  12375 H(4)       42.0463   21.0253   18.9958 H         1 UNK         0.0000 
  12376 H(5)       43.1891   19.3017   23.0699 H         1 UNK         0.0000 
  12377 H(6)       42.9533   20.7767   16.9335 H         1 UNK         0.0000 
  12378 H(7)       44.5074   20.2929   14.3248 H         1 UNK         0.0000 
  12379 H(8)       43.4324   21.4745   14.9645 H         1 UNK         0.0000 
  12380 H(9)       45.1097   21.8405   14.6168 H         1 UNK         0.0000 
  12381 O(1)       46.7861   30.5627   19.4793 O.3       1 UNK         0.0000 
  12382 O(2)       44.7883   24.3939   19.3635 O.2       1 UNK         0.0000 
  12383 N(1)       46.9694   24.9983   19.5512 N.am      1 UNK         0.0000 
  12384 C(1)       46.8700   26.4068   19.5000 C.ar      1 UNK         0.0000 
  12385 C(2)       45.7878   27.0950   18.9517 C.ar      1 UNK         0.0000 
  12386 C(3)       45.7808   28.4868   18.9482 C.ar      1 UNK         0.0000 
  12387 C(4)       46.8508   29.2014   19.4805 C.ar      1 UNK         0.0000 
  12388 C(5)       47.9464   28.5135   20.0007 C.ar      1 UNK         0.0000 
  12389 C(6)       47.9517   27.1259   20.0094 C.ar      1 UNK         0.0000 
  12390 C(7)       45.9786   24.0930   19.5044 C.2       1 UNK         0.0000 
  12391 C(8)       46.4195   22.6589   19.6254 C.3       1 UNK         0.0000 
  12392 H(1)       44.9473   26.5524   18.5370 H         1 UNK         0.0000 
  12393 H(2)       44.9300   29.0033   18.5211 H         1 UNK         0.0000 
  12394 H(3)       48.7896   29.0627   20.4010 H         1 UNK         0.0000 
  12395 H(4)       48.8023   26.5924   20.4154 H         1 UNK         0.0000 
  12396 H(5)       47.6595   30.9453   19.6273 H         1 UNK         0.0000 
  12397 H(6)       47.8954   24.6348   19.7204 H         1 UNK         0.0000 
  12398 H(7)       46.3412   22.1958   18.6762 H         1 UNK         0.0000 
  12399 H(8)       47.4163   22.5607   19.9694 H         1 UNK         0.0000 
  12400 H(9)       45.7390   22.1412   20.2502 H         1 UNK         0.0000 
  12401 O(1)       42.4522   24.0960   20.5721 O.3       1 UNK         0.0000 
  12402 O(2)       40.4544   22.8559   26.6161 O.2       1 UNK         0.0000 
  12403 N(1)       42.6355   22.8052   25.9852 N.am      1 UNK         0.0000 
  12404 C(1)       42.5361   23.1642   24.6223 C.ar      1 UNK         0.0000 
  12405 C(2)       41.4539   23.8500   24.0711 C.ar      1 UNK         0.0000 
  12406 C(3)       41.4469   24.1588   22.7140 C.ar      1 UNK         0.0000 
  12407 C(4)       42.5169   23.7962   21.9000 C.ar      1 UNK         0.0000 
  12408 C(5)       43.6125   23.1378   22.4571 C.ar      1 UNK         0.0000 
  12409 C(6)       43.6178   22.8249   23.8089 C.ar      1 UNK         0.0000 
  12410 C(7)       41.6448   22.6524   26.8787 C.2       1 UNK         0.0000 
  12411 C(8)       42.0856   22.2198   28.2514 C.3       1 UNK         0.0000 
  12412 H(1)       40.6134   24.1357   24.6914 H         1 UNK         0.0000 
  12413 H(2)       40.5961   24.6887   22.3037 H         1 UNK         0.0000 
  12414 H(3)       44.4557   22.8677   21.8334 H         1 UNK         0.0000 
  12415 H(4)       44.4684   22.3118   24.2404 H         1 UNK         0.0000 
  12416 H(5)       43.3256   24.0354   20.1663 H         1 UNK         0.0000 
  12417 H(6)       43.5615   22.5605   26.3027 H         1 UNK         0.0000 
  12418 H(7)       42.0073   23.0442   28.9114 H         1 UNK         0.0000 
  12419 H(8)       43.0824   21.8626   28.2717 H         1 UNK         0.0000 
  12420 H(9)       41.4051   21.4967   28.6194 H         1 UNK         0.0000 
  12421 O(1)       41.3195   27.4568   23.7569 O.3       1 UNK         0.0000 
  12422 O(2)       43.3173   33.6256   23.8727 O.2       1 UNK         0.0000 
  12423 N(1)       41.1361   33.0212   23.6850 N.am      1 UNK         0.0000 
  12424 C(1)       41.2356   31.6127   23.7362 C.ar      1 UNK         0.0000 
  12425 C(2)       42.3178   30.9245   24.2845 C.ar      1 UNK         0.0000 
  12426 C(3)       42.3248   29.5327   24.2881 C.ar      1 UNK         0.0000 
  12427 C(4)       41.2548   28.8181   23.7557 C.ar      1 UNK         0.0000 
  12428 C(5)       40.1592   29.5060   23.2355 C.ar      1 UNK         0.0000 
  12429 C(6)       40.1538   30.8936   23.2268 C.ar      1 UNK         0.0000 
  12430 C(7)       42.1269   33.9265   23.7318 C.2       1 UNK         0.0000 
  12431 C(8)       41.6861   35.3606   23.6108 C.3       1 UNK         0.0000 
  12432 H(1)       43.1583   31.4671   24.6992 H         1 UNK         0.0000 
  12433 H(2)       43.1756   29.0162   24.7151 H         1 UNK         0.0000 
  12434 H(3)       39.3160   28.9568   22.8352 H         1 UNK         0.0000 
  12435 H(4)       39.3032   31.4271   22.8209 H         1 UNK         0.0000 
  12436 H(5)       40.4460   27.0742   23.6089 H         1 UNK         0.0000 
  12437 H(6)       40.2102   33.3846   23.5158 H         1 UNK         0.0000 
  12438 H(7)       41.7643   35.8237   24.5600 H         1 UNK         0.0000 
  12439 H(8)       40.6893   35.4588   23.2668 H         1 UNK         0.0000 
  12440 H(9)       42.3665   35.8783   22.9860 H         1 UNK         0.0000 
  12441 O(1)       45.6534   22.4616    8.3393 O.3       1 UNK         0.0000 
  12442 O(2)       47.6512   23.7017    2.2953 O.2       1 UNK         0.0000 
  12443 N(1)       45.4700   23.7523    2.9262 N.am      1 UNK         0.0000 
  12444 C(1)       45.5695   23.3934    4.2891 C.ar      1 UNK         0.0000 
  12445 C(2)       46.6516   22.7075    4.8403 C.ar      1 UNK         0.0000 
  12446 C(3)       46.6587   22.3988    6.1975 C.ar      1 UNK         0.0000 
  12447 C(4)       45.5887   22.7614    7.0114 C.ar      1 UNK         0.0000 
  12448 C(5)       44.4930   23.4198    6.4543 C.ar      1 UNK         0.0000 
  12449 C(6)       44.4877   23.7327    5.1025 C.ar      1 UNK         0.0000 
  12450 C(7)       46.4608   23.9051    2.0327 C.2       1 UNK         0.0000 
  12451 C(8)       46.0200   24.3378    0.6600 C.3       1 UNK         0.0000 
  12452 H(1)       47.4922   22.4219    4.2200 H         1 UNK         0.0000 
  12453 H(2)       47.5095   21.8688    6.6077 H         1 UNK         0.0000 
  12454 H(3)       43.6499   23.6899    7.0780 H         1 UNK         0.0000 
  12455 H(4)       43.6371   24.2457    4.6710 H         1 UNK         0.0000 
  12456 H(5)       44.7799   22.5221    8.7451 H         1 UNK         0.0000 
  12457 H(6)       44.5441   23.9971    2.6087 H         1 UNK         0.0000 
  12458 H(7)       46.0982   23.5133    0.0000 H         1 UNK         0.0000 
  12459 H(8)       45.0232   24.6949    0.6397 H         1 UNK         0.0000 
  12460 H(9)       46.7004   25.0609    0.2920 H         1 UNK         0.0000 
  12461 O(1)       48.3769   33.7831    5.1545 O.3       1 UNK         0.0000 
  12462 O(2)       46.3791   27.6143    5.0387 O.2       1 UNK         0.0000 
  12463 N(1)       48.5602   28.2187    5.2264 N.am      1 UNK         0.0000 
  12464 C(1)       48.4607   29.6272    5.1752 C.ar      1 UNK         0.0000 
  12465 C(2)       47.3786   30.3154    4.6269 C.ar      1 UNK         0.0000 
  12466 C(3)       47.3716   31.7072    4.6234 C.ar      1 UNK         0.0000 
  12467 C(4)       48.4416   32.4218    5.1557 C.ar      1 UNK         0.0000 
  12468 C(5)       49.5372   31.7339    5.6759 C.ar      1 UNK         0.0000 
  12469 C(6)       49.5425   30.3463    5.6846 C.ar      1 UNK         0.0000 
  12470 C(7)       47.5694   27.3134    5.1796 C.2       1 UNK         0.0000 
  12471 C(8)       48.0103   25.8793    5.3006 C.3       1 UNK         0.0000 
  12472 H(1)       46.5381   29.7728    4.2122 H         1 UNK         0.0000 
  12473 H(2)       46.5208   32.2236    4.1963 H         1 UNK         0.0000 
  12474 H(3)       50.3804   32.2831    6.0762 H         1 UNK         0.0000 
  12475 H(4)       50.3931   29.8128    6.0906 H         1 UNK         0.0000 
  12476 H(5)       49.2503   34.1657    5.3025 H         1 UNK         0.0000 
  12477 H(6)       49.4862   27.8552    5.3956 H         1 UNK         0.0000 
  12478 H(7)       47.9320   25.4162    4.3514 H         1 UNK         0.0000 
  12479 H(8)       49.0071   25.7811    5.6446 H         1 UNK         0.0000 
  12480 H(9)       47.3298   25.3616    5.9254 H         1 UNK         0.0000 
  12481 O(1)       45.6338   41.9987    6.2473 O.3       1 UNK         0.0000 
  12482 O(2)       43.6360   40.7586   12.2913 O.2       1 UNK         0.0000 
  12483 N(1)       45.8171   40.7080   11.6604 N.am      1 UNK         0.0000 
  12484 C(1)       45.7176   41.0669   10.2975 C.ar      1 UNK         0.0000 
  12485 C(2)       44.6355   41.7528    9.7463 C.ar      1 UNK         0.0000 
  12486 C(3)       44.6285   42.0615    8.3892 C.ar      1 UNK         0.0000 
  12487 C(4)       45.6985   41.6989    7.5752 C.ar      1 UNK         0.0000 
  12488 C(5)       46.7941   41.0405    8.1323 C.ar      1 UNK         0.0000 
  12489 C(6)       46.7994   40.7276    9.4841 C.ar      1 UNK         0.0000 
  12490 C(7)       44.8263   40.5551   12.5539 C.2       1 UNK         0.0000 
  12491 C(8)       45.2672   40.1225   13.9266 C.3       1 UNK         0.0000 
  12492 H(1)       43.7950   42.0384   10.3666 H         1 UNK         0.0000 
  12493 H(2)       43.7776   42.5914    7.9789 H         1 UNK         0.0000 
  12494 H(3)       47.6373   40.7704    7.5086 H         1 UNK         0.0000 
  12495 H(4)       47.6500   40.2146    9.9156 H         1 UNK         0.0000 
  12496 H(5)       46.5072   41.9382    5.8415 H         1 UNK         0.0000 
  12497 H(6)       46.7431   40.4632   11.9779 H         1 UNK         0.0000 
  12498 H(7)       45.1889   40.9470   14.5866 H         1 UNK         0.0000 
  12499 H(8)       46.2640   39.7654   13.9469 H         1 UNK         0.0000 
  12500 H(9)       44.5867   39.3994   14.2946 H         1 UNK         0.0000 
  12501 O(1)       49.9873   30.6772    9.4321 O.3       1 UNK         0.0000 
  12502 O(2)       51.9851   36.8460    9.5479 O.2       1 UNK         0.0000 
  12503 N(1)       49.8039   36.2416    9.3602 N.am      1 UNK         0.0000 
  12504 C(1)       49.9034   34.8331    9.4114 C.ar      1 UNK         0.0000 
  12505 C(2)       50.9855   34.1449    9.9597 C.ar      1 UNK         0.0000 
  12506 C(3)       50.9926   32.7531    9.9633 C.ar      1 UNK         0.0000 
  12507 C(4)       49.9225   32.0385    9.4309 C.ar      1 UNK         0.0000 
  12508 C(5)       48.8269   32.7264    8.9107 C.ar      1 UNK         0.0000 
  12509 C(6)       48.8216   34.1140    8.9020 C.ar      1 UNK         0.0000 
  12510 C(7)       50.7947   37.1469    9.4070 C.2       1 UNK         0.0000 
  12511 C(8)       50.3539   38.5810    9.2860 C.3       1 UNK         0.0000 
  12512 H(1)       51.8261   34.6875   10.3744 H         1 UNK         0.0000 
  12513 H(2)       51.8434   32.2366   10.3903 H         1 UNK         0.0000 
  12514 H(3)       47.9838   32.1772    8.5104 H         1 UNK         0.0000 
  12515 H(4)       47.9710   34.6475    8.4961 H         1 UNK         0.0000 
  12516 H(5)       49.1138   30.2946    9.2841 H         1 UNK         0.0000 
  12517 H(6)       48.8780   36.6050    9.1910 H         1 UNK         0.0000 
  12518 H(7)       50.4321   39.0441   10.2352 H         1 UNK         0.0000 
  12519 H(8)       49.3571   38.6792    8.9420 H         1 UNK         0.0000 
  12520 H(9)       51.0343   39.0987    8.6612 H         1 UNK         0.0000 
  12521 O(1)       40.1672   42.8749   15.5017 O.3       1 UNK         0.0000 
  12522 O(2)       42.1650   44.1150    9.4577 O.2       1 UNK         0.0000 
  12523 N(1)       39.9838   44.1656   10.0886 N.am      1 UNK         0.0000 
  12524 C(1)       40.0833   43.8067   11.4515 C.ar      1 UNK         0.0000 
  12525 C(2)       41.1654   43.1208   12.0027 C.ar      1 UNK         0.0000 
  12526 C(3)       41.1725   42.8120   13.3599 C.ar      1 UNK         0.0000 
  12527 C(4)       40.1024   43.1747   14.1738 C.ar      1 UNK         0.0000 
  12528 C(5)       39.0068   43.8331   13.6167 C.ar      1 UNK         0.0000 
  12529 C(6)       39.0015   44.1460   12.2649 C.ar      1 UNK         0.0000 
  12530 C(7)       40.9746   44.3184    9.1951 C.2       1 UNK         0.0000 
  12531 C(8)       40.5337   44.7511    7.8224 C.3       1 UNK         0.0000 
  12532 H(1)       42.0060   42.8352   11.3824 H         1 UNK         0.0000 
  12533 H(2)       42.0233   42.2821   13.7701 H         1 UNK         0.0000 
  12534 H(3)       38.1637   44.1032   14.2404 H         1 UNK         0.0000 
  12535 H(4)       38.1509   44.6590   11.8334 H         1 UNK         0.0000 
  12536 H(5)       39.2937   42.9354   15.9075 H         1 UNK         0.0000 
  12537 H(6)       39.0579   44.4103    9.7711 H         1 UNK         0.0000 
  12538 H(7)       40.6120   43.9266    7.1624 H         1 UNK         0.0000 
  12539 H(8)       39.5370   45.1082    7.8021 H         1 UNK         0.0000 
  12540 H(9)       41.2142   45.4742    7.4544 H         1 UNK         0.0000 
  12541 O(1)       41.2999   39.5141   12.3169 O.3       1 UNK         0.0000 
  12542 O(2)       39.3021   33.3453   12.2011 O.2       1 UNK         0.0000 
  12543 N(1)       41.4832   33.9497   12.3888 N.am      1 UNK         0.0000 
  12544 C(1)       41.3837   35.3581   12.3376 C.ar      1 UNK         0.0000 
  12545 C(2)       40.3016   36.0463   11.7893 C.ar      1 UNK         0.0000 
  12546 C(3)       40.2946   37.4381   11.7858 C.ar      1 UNK         0.0000 
  12547 C(4)       41.3646   38.1527   12.3181 C.ar      1 UNK         0.0000 
  12548 C(5)       42.4602   37.4648   12.8383 C.ar      1 UNK         0.0000 
  12549 C(6)       42.4655   36.0773   12.8470 C.ar      1 UNK         0.0000 
  12550 C(7)       40.4924   33.0444   12.3420 C.2       1 UNK         0.0000 
  12551 C(8)       40.9333   31.6102   12.4630 C.3       1 UNK         0.0000 
  12552 H(1)       39.4611   35.5038   11.3746 H         1 UNK         0.0000 
  12553 H(2)       39.4438   37.9546   11.3587 H         1 UNK         0.0000 
  12554 H(3)       43.3034   38.0141   13.2386 H         1 UNK         0.0000 
  12555 H(4)       43.3161   35.5438   13.2530 H         1 UNK         0.0000 
  12556 H(5)       42.1733   39.8967   12.4649 H         1 UNK         0.0000 
  12557 H(6)       42.4092   33.5862   12.5580 H         1 UNK         0.0000 
  12558 H(7)       40.8550   31.1471   11.5138 H         1 UNK         0.0000 
  12559 H(8)       41.9301   31.5121   12.8070 H         1 UNK         0.0000 
  12560 H(9)       40.2528   31.0926   13.0878 H         1 UNK         0.0000 
  12561 O(1)       45.6338   47.7297   13.4097 O.3       1 UNK         0.0000 
  12562 O(2)       43.6360   46.4896   19.4537 O.2       1 UNK         0.0000 
  12563 N(1)       45.8171   46.4389   18.8228 N.am      1 UNK         0.0000 
  12564 C(1)       45.7176   46.7979   17.4599 C.ar      1 UNK         0.0000 
  12565 C(2)       44.6355   47.4837   16.9087 C.ar      1 UNK         0.0000 
  12566 C(3)       44.6285   47.7925   15.5516 C.ar      1 UNK         0.0000 
  12567 C(4)       45.6985   47.4298   14.7376 C.ar      1 UNK         0.0000 
  12568 C(5)       46.7941   46.7715   15.2947 C.ar      1 UNK         0.0000 
  12569 C(6)       46.7994   46.4586   16.6465 C.ar      1 UNK         0.0000 
  12570 C(7)       44.8263   46.2861   19.7163 C.2       1 UNK         0.0000 
  12571 C(8)       45.2672   45.8535   21.0890 C.3       1 UNK         0.0000 
  12572 H(1)       43.7950   47.7694   17.5290 H         1 UNK         0.0000 
  12573 H(2)       43.7776   48.3224   15.1413 H         1 UNK         0.0000 
  12574 H(3)       47.6373   46.5014   14.6710 H         1 UNK         0.0000 
  12575 H(4)       47.6500   45.9455   17.0780 H         1 UNK         0.0000 
  12576 H(5)       46.5072   47.6691   13.0039 H         1 UNK         0.0000 
  12577 H(6)       46.7431   46.1942   19.1403 H         1 UNK         0.0000 
  12578 H(7)       45.1889   46.6779   21.7490 H         1 UNK         0.0000 
  12579 H(8)       46.2640   45.4963   21.1093 H         1 UNK         0.0000 
  12580 H(9)       44.5867   45.1304   21.4570 H         1 UNK         0.0000 
  12581 O(1)       49.9873   36.4082   16.5945 O.3       1 UNK         0.0000 
  12582 O(2)       51.9851   42.5769   16.7103 O.2       1 UNK         0.0000 
  12583 N(1)       49.8039   41.9725   16.5226 N.am      1 UNK         0.0000 
  12584 C(1)       49.9034   40.5641   16.5738 C.ar      1 UNK         0.0000 
  12585 C(2)       50.9855   39.8759   17.1221 C.ar      1 UNK         0.0000 
  12586 C(3)       50.9926   38.4841   17.1257 C.ar      1 UNK         0.0000 
  12587 C(4)       49.9225   37.7695   16.5933 C.ar      1 UNK         0.0000 
  12588 C(5)       48.8269   38.4574   16.0731 C.ar      1 UNK         0.0000 
  12589 C(6)       48.8216   39.8449   16.0644 C.ar      1 UNK         0.0000 
  12590 C(7)       50.7947   42.8779   16.5694 C.2       1 UNK         0.0000 
  12591 C(8)       50.3539   44.3120   16.4484 C.3       1 UNK         0.0000 
  12592 H(1)       51.8261   40.4184   17.5368 H         1 UNK         0.0000 
  12593 H(2)       51.8434   37.9676   17.5527 H         1 UNK         0.0000 
  12594 H(3)       47.9838   37.9081   15.6728 H         1 UNK         0.0000 
  12595 H(4)       47.9710   40.3784   15.6585 H         1 UNK         0.0000 
  12596 H(5)       49.1138   36.0256   16.4465 H         1 UNK         0.0000 
  12597 H(6)       48.8780   42.3360   16.3534 H         1 UNK         0.0000 
  12598 H(7)       50.4321   44.7751   17.3976 H         1 UNK         0.0000 
  12599 H(8)       49.3571   44.4101   16.1044 H         1 UNK         0.0000 
  12600 H(9)       51.0343   44.8296   15.8236 H         1 UNK         0.0000 
  12601 O(1)       45.6534   33.9235   22.6641 O.3       1 UNK         0.0000 
  12602 O(2)       47.6512   35.1636   16.6201 O.2       1 UNK         0.0000 
  12603 N(1)       45.4700   35.2142   17.2510 N.am      1 UNK         0.0000 
  12604 C(1)       45.5695   34.8553   18.6139 C.ar      1 UNK         0.0000 
  12605 C(2)       46.6516   34.1694   19.1651 C.ar      1 UNK         0.0000 
  12606 C(3)       46.6587   33.8607   20.5223 C.ar      1 UNK         0.0000 
  12607 C(4)       45.5887   34.2233   21.3362 C.ar      1 UNK         0.0000 
  12608 C(5)       44.4930   34.8817   20.7791 C.ar      1 UNK         0.0000 
  12609 C(6)       44.4877   35.1946   19.4273 C.ar      1 UNK         0.0000 
  12610 C(7)       46.4608   35.3671   16.3575 C.2       1 UNK         0.0000 
  12611 C(8)       46.0200   35.7997   14.9848 C.3       1 UNK         0.0000 
  12612 H(1)       47.4922   33.8838   18.5448 H         1 UNK         0.0000 
  12613 H(2)       47.5095   33.3308   20.9325 H         1 UNK         0.0000 
  12614 H(3)       43.6499   35.1518   21.4028 H         1 UNK         0.0000 
  12615 H(4)       43.6371   35.7077   18.9958 H         1 UNK         0.0000 
  12616 H(5)       44.7799   33.9840   23.0699 H         1 UNK         0.0000 
  12617 H(6)       44.5441   35.4590   16.9335 H         1 UNK         0.0000 
  12618 H(7)       46.0982   34.9753   14.3248 H         1 UNK         0.0000 
  12619 H(8)       45.0232   36.1568   14.9645 H         1 UNK         0.0000 
  12620 H(9)       46.7004   36.5228   14.6168 H         1 UNK         0.0000 
  12621 O(1)       48.3769   45.2450   19.4793 O.3       1 UNK         0.0000 
  12622 O(2)       46.3791   39.0762   19.3635 O.2       1 UNK         0.0000 
  12623 N(1)       48.5602   39.6806   19.5512 N.am      1 UNK         0.0000 
  12624 C(1)       48.4607   41.0891   19.5000 C.ar      1 UNK         0.0000 
  12625 C(2)       47.3786   41.7773   18.9517 C.ar      1 UNK         0.0000 
  12626 C(3)       47.3716   43.1691   18.9482 C.ar      1 UNK         0.0000 
  12627 C(4)       48.4416   43.8837   19.4805 C.ar      1 UNK         0.0000 
  12628 C(5)       49.5372   43.1958   20.0007 C.ar      1 UNK         0.0000 
  12629 C(6)       49.5425   41.8082   20.0094 C.ar      1 UNK         0.0000 
  12630 C(7)       47.5694   38.7753   19.5044 C.2       1 UNK         0.0000 
  12631 C(8)       48.0103   37.3412   19.6254 C.3       1 UNK         0.0000 
  12632 H(1)       46.5381   41.2348   18.5370 H         1 UNK         0.0000 
  12633 H(2)       46.5208   43.6856   18.5211 H         1 UNK         0.0000 
  12634 H(3)       50.3804   43.7450   20.4010 H         1 UNK         0.0000 
  12635 H(4)       50.3931   41.2747   20.4154 H         1 UNK         0.0000 
  12636 H(5)       49.2503   45.6276   19.6273 H         1 UNK         0.0000 
  12637 H(6)       49.4862   39.3172   19.7204 H         1 UNK         0.0000 
  12638 H(7)       47.9320   36.8781   18.6762 H         1 UNK         0.0000 
  12639 H(8)       49.0071   37.2431   19.9694 H         1 UNK         0.0000 
  12640 H(9)       47.3298   36.8235   20.2502 H         1 UNK         0.0000 
  12641 O(1)       44.0430   38.7783   20.5721 O.3       1 UNK         0.0000 
  12642 O(2)       42.0452   37.5382   26.6161 O.2       1 UNK         0.0000 
  12643 N(1)       44.2263   37.4876   25.9852 N.am      1 UNK         0.0000 
  12644 C(1)       44.1269   37.8465   24.6223 C.ar      1 UNK         0.0000 
  12645 C(2)       43.0447   38.5324   24.0711 C.ar      1 UNK         0.0000 
  12646 C(3)       43.0377   38.8411   22.7140 C.ar      1 UNK         0.0000 
  12647 C(4)       44.1077   38.4785   21.9000 C.ar      1 UNK         0.0000 
  12648 C(5)       45.2033   37.8201   22.4571 C.ar      1 UNK         0.0000 
  12649 C(6)       45.2086   37.5072   23.8089 C.ar      1 UNK         0.0000 
  12650 C(7)       43.2355   37.3347   26.8787 C.2       1 UNK         0.0000 
  12651 C(8)       43.6764   36.9021   28.2514 C.3       1 UNK         0.0000 
  12652 H(1)       42.2042   38.8180   24.6914 H         1 UNK         0.0000 
  12653 H(2)       42.1869   39.3710   22.3037 H         1 UNK         0.0000 
  12654 H(3)       46.0465   37.5500   21.8334 H         1 UNK         0.0000 
  12655 H(4)       46.0592   36.9942   24.2404 H         1 UNK         0.0000 
  12656 H(5)       44.9164   38.7178   20.1663 H         1 UNK         0.0000 
  12657 H(6)       45.1523   37.2428   26.3027 H         1 UNK         0.0000 
  12658 H(7)       43.5981   37.7266   28.9114 H         1 UNK         0.0000 
  12659 H(8)       44.6732   36.5450   28.2717 H         1 UNK         0.0000 
  12660 H(9)       42.9959   36.1790   28.6194 H         1 UNK         0.0000 
  12661 O(1)       42.9103   42.1391   23.7569 O.3       1 UNK         0.0000 
  12662 O(2)       44.9081   48.3079   23.8727 O.2       1 UNK         0.0000 
  12663 N(1)       42.7269   47.7035   23.6850 N.am      1 UNK         0.0000 
  12664 C(1)       42.8264   46.2951   23.7362 C.ar      1 UNK         0.0000 
  12665 C(2)       43.9085   45.6068   24.2845 C.ar      1 UNK         0.0000 
  12666 C(3)       43.9156   44.2150   24.2881 C.ar      1 UNK         0.0000 
  12667 C(4)       42.8455   43.5004   23.7557 C.ar      1 UNK         0.0000 
  12668 C(5)       41.7499   44.1884   23.2355 C.ar      1 UNK         0.0000 
  12669 C(6)       41.7446   45.5759   23.2268 C.ar      1 UNK         0.0000 
  12670 C(7)       43.7177   48.6088   23.7318 C.2       1 UNK         0.0000 
  12671 C(8)       43.2769   50.0429   23.6108 C.3       1 UNK         0.0000 
  12672 H(1)       44.7491   46.1494   24.6992 H         1 UNK         0.0000 
  12673 H(2)       44.7664   43.6986   24.7151 H         1 UNK         0.0000 
  12674 H(3)       40.9068   43.6391   22.8352 H         1 UNK         0.0000 
  12675 H(4)       40.8940   46.1094   22.8209 H         1 UNK         0.0000 
  12676 H(5)       42.0368   41.7565   23.6089 H         1 UNK         0.0000 
  12677 H(6)       41.8010   48.0670   23.5158 H         1 UNK         0.0000 
  12678 H(7)       43.3551   50.5060   24.5600 H         1 UNK         0.0000 
  12679 H(8)       42.2801   50.1411   23.2668 H         1 UNK         0.0000 
  12680 H(9)       43.9573   50.5606   22.9860 H         1 UNK         0.0000 
  12681 O(1)       47.2442   37.1439    8.3393 O.3       1 UNK         0.0000 
  12682 O(2)       49.2420   38.3840    2.2953 O.2       1 UNK         0.0000 
  12683 N(1)       47.0608   38.4346    2.9262 N.am      1 UNK         0.0000 
  12684 C(1)       47.1603   38.0757    4.2891 C.ar      1 UNK         0.0000 
  12685 C(2)       48.2424   37.3898    4.8403 C.ar      1 UNK         0.0000 
  12686 C(3)       48.2495   37.0811    6.1975 C.ar      1 UNK         0.0000 
  12687 C(4)       47.1794   37.4437    7.0114 C.ar      1 UNK         0.0000 
  12688 C(5)       46.0838   38.1021    6.4543 C.ar      1 UNK         0.0000 
  12689 C(6)       46.0785   38.4150    5.1025 C.ar      1 UNK         0.0000 
  12690 C(7)       48.0516   38.5875    2.0327 C.2       1 UNK         0.0000 
  12691 C(8)       47.6107   39.0201    0.6600 C.3       1 UNK         0.0000 
  12692 H(1)       49.0830   37.1042    4.2200 H         1 UNK         0.0000 
  12693 H(2)       49.1003   36.5512    6.6077 H         1 UNK         0.0000 
  12694 H(3)       45.2407   38.3722    7.0780 H         1 UNK         0.0000 
  12695 H(4)       45.2279   38.9281    4.6710 H         1 UNK         0.0000 
  12696 H(5)       46.3707   37.2044    8.7451 H         1 UNK         0.0000 
  12697 H(6)       46.1349   38.6794    2.6087 H         1 UNK         0.0000 
  12698 H(7)       47.6890   38.1956    0.0000 H         1 UNK         0.0000 
  12699 H(8)       46.6140   39.3772    0.6397 H         1 UNK         0.0000 
  12700 H(9)       48.2912   39.7432    0.2920 H         1 UNK         0.0000 
  12701 O(1)       49.9677   48.4654    5.1545 O.3       1 UNK         0.0000 
  12702 O(2)       47.9698   42.2966    5.0387 O.2       1 UNK         0.0000 
  12703 N(1)       50.1510   42.9010    5.2264 N.am      1 UNK         0.0000 
  12704 C(1)       50.0515   44.3095    5.1752 C.ar      1 UNK         0.0000 
  12705 C(2)       48.9694   44.9977    4.6269 C.ar      1 UNK         0.0000 
  12706 C(3)       48.9623   46.3895    4.6234 C.ar      1 UNK         0.0000 
  12707 C(4)       50.0324   47.1041    5.1557 C.ar      1 UNK         0.0000 
  12708 C(5)       51.1280   46.4162    5.6759 C.ar      1 UNK         0.0000 
  12709 C(6)       51.1333   45.0286    5.6846 C.ar      1 UNK         0.0000 
  12710 C(7)       49.1602   41.9957    5.1796 C.2       1 UNK         0.0000 
  12711 C(8)       49.6011   40.5616    5.3006 C.3       1 UNK         0.0000 
  12712 H(1)       48.1288   44.4552    4.2122 H         1 UNK         0.0000 
  12713 H(2)       48.1115   46.9060    4.1963 H         1 UNK         0.0000 
  12714 H(3)       51.9711   46.9654    6.0762 H         1 UNK         0.0000 
  12715 H(4)       51.9839   44.4951    6.0906 H         1 UNK         0.0000 
  12716 H(5)       50.8411   48.8480    5.3025 H         1 UNK         0.0000 
  12717 H(6)       51.0770   42.5376    5.3956 H         1 UNK         0.0000 
  12718 H(7)       49.5228   40.0985    4.3514 H         1 UNK         0.0000 
  12719 H(8)       50.5978   40.4635    5.6446 H         1 UNK         0.0000 
  12720 H(9)       48.9206   40.0439    5.9254 H         1 UNK         0.0000 
  12721 O(1)       47.2246   56.6810    6.2473 O.3       1 UNK         0.0000 
  12722 O(2)       45.2267   55.4409   12.2913 O.2       1 UNK         0.0000 
  12723 N(1)       47.4079   55.3903   11.6604 N.am      1 UNK         0.0000 
  12724 C(1)       47.3084   55.7492   10.2975 C.ar      1 UNK         0.0000 
  12725 C(2)       46.2263   56.4351    9.7463 C.ar      1 UNK         0.0000 
  12726 C(3)       46.2192   56.7439    8.3892 C.ar      1 UNK         0.0000 
  12727 C(4)       47.2893   56.3812    7.5752 C.ar      1 UNK         0.0000 
  12728 C(5)       48.3849   55.7228    8.1323 C.ar      1 UNK         0.0000 
  12729 C(6)       48.3902   55.4100    9.4841 C.ar      1 UNK         0.0000 
  12730 C(7)       46.4171   55.2375   12.5539 C.2       1 UNK         0.0000 
  12731 C(8)       46.8580   54.8048   13.9266 C.3       1 UNK         0.0000 
  12732 H(1)       45.3857   56.7208   10.3666 H         1 UNK         0.0000 
  12733 H(2)       45.3684   57.2738    7.9789 H         1 UNK         0.0000 
  12734 H(3)       49.2280   55.4527    7.5086 H         1 UNK         0.0000 
  12735 H(4)       49.2408   54.8969    9.9156 H         1 UNK         0.0000 
  12736 H(5)       48.0980   56.6205    5.8415 H         1 UNK         0.0000 
  12737 H(6)       48.3338   55.1456   11.9779 H         1 UNK         0.0000 
  12738 H(7)       46.7797   55.6293   14.5866 H         1 UNK         0.0000 
  12739 H(8)       47.8547   54.4477   13.9469 H         1 UNK         0.0000 
  12740 H(9)       46.1775   54.0817   14.2946 H         1 UNK         0.0000 
  12741 O(1)       51.5780   45.3595    9.4321 O.3       1 UNK         0.0000 
  12742 O(2)       53.5759   51.5283    9.5479 O.2       1 UNK         0.0000 
  12743 N(1)       51.3947   50.9239    9.3602 N.am      1 UNK         0.0000 
  12744 C(1)       51.4942   49.5155    9.4114 C.ar      1 UNK         0.0000 
  12745 C(2)       52.5763   48.8272    9.9597 C.ar      1 UNK         0.0000 
  12746 C(3)       52.5834   47.4354    9.9633 C.ar      1 UNK         0.0000 
  12747 C(4)       51.5133   46.7208    9.4309 C.ar      1 UNK         0.0000 
  12748 C(5)       50.4177   47.4088    8.9107 C.ar      1 UNK         0.0000 
  12749 C(6)       50.4124   48.7963    8.9020 C.ar      1 UNK         0.0000 
  12750 C(7)       52.3855   51.8292    9.4070 C.2       1 UNK         0.0000 
  12751 C(8)       51.9446   53.2633    9.2860 C.3       1 UNK         0.0000 
  12752 H(1)       53.4169   49.3698   10.3744 H         1 UNK         0.0000 
  12753 H(2)       53.4342   46.9190   10.3903 H         1 UNK         0.0000 
  12754 H(3)       49.5746   46.8595    8.5104 H         1 UNK         0.0000 
  12755 H(4)       49.5618   49.3298    8.4961 H         1 UNK         0.0000 
  12756 H(5)       50.7046   44.9769    9.2841 H         1 UNK         0.0000 
  12757 H(6)       50.4687   51.2874    9.1910 H         1 UNK         0.0000 
  12758 H(7)       52.0229   53.7264   10.2352 H         1 UNK         0.0000 
  12759 H(8)       50.9479   53.3615    8.9420 H         1 UNK         0.0000 
  12760 H(9)       52.6251   53.7810    8.6612 H         1 UNK         0.0000 
  12761 O(1)       41.7579   57.5572   15.5017 O.3       1 UNK         0.0000 
  12762 O(2)       43.7557   58.7973    9.4577 O.2       1 UNK         0.0000 
  12763 N(1)       41.5746   58.8479   10.0886 N.am      1 UNK         0.0000 
  12764 C(1)       41.6741   58.4890   11.4515 C.ar      1 UNK         0.0000 
  12765 C(2)       42.7562   57.8031   12.0027 C.ar      1 UNK         0.0000 
  12766 C(3)       42.7632   57.4944   13.3599 C.ar      1 UNK         0.0000 
  12767 C(4)       41.6932   57.8570   14.1738 C.ar      1 UNK         0.0000 
  12768 C(5)       40.5976   58.5154   13.6167 C.ar      1 UNK         0.0000 
  12769 C(6)       40.5923   58.8283   12.2649 C.ar      1 UNK         0.0000 
  12770 C(7)       42.5654   59.0008    9.1951 C.2       1 UNK         0.0000 
  12771 C(8)       42.1245   59.4334    7.8224 C.3       1 UNK         0.0000 
  12772 H(1)       43.5968   57.5175   11.3824 H         1 UNK         0.0000 
  12773 H(2)       43.6141   56.9645   13.7701 H         1 UNK         0.0000 
  12774 H(3)       39.7544   58.7855   14.2404 H         1 UNK         0.0000 
  12775 H(4)       39.7417   59.3414   11.8334 H         1 UNK         0.0000 
  12776 H(5)       40.8845   57.6177   15.9075 H         1 UNK         0.0000 
  12777 H(6)       40.6486   59.0927    9.7711 H         1 UNK         0.0000 
  12778 H(7)       42.2028   58.6089    7.1624 H         1 UNK         0.0000 
  12779 H(8)       41.1277   59.7905    7.8021 H         1 UNK         0.0000 
  12780 H(9)       42.8050   60.1565    7.4544 H         1 UNK         0.0000 
  12781 O(1)       42.8907   54.1964   12.3169 O.3       1 UNK         0.0000 
  12782 O(2)       40.8928   48.0276   12.2011 O.2       1 UNK         0.0000 
  12783 N(1)       43.0740   48.6320   12.3888 N.am      1 UNK         0.0000 
  12784 C(1)       42.9745   50.0404   12.3376 C.ar      1 UNK         0.0000 
  12785 C(2)       41.8924   50.7287   11.7893 C.ar      1 UNK         0.0000 
  12786 C(3)       41.8853   52.1205   11.7858 C.ar      1 UNK         0.0000 
  12787 C(4)       42.9554   52.8351   12.3181 C.ar      1 UNK         0.0000 
  12788 C(5)       44.0510   52.1472   12.8383 C.ar      1 UNK         0.0000 
  12789 C(6)       44.0563   50.7596   12.8470 C.ar      1 UNK         0.0000 
  12790 C(7)       42.0832   47.7267   12.3420 C.2       1 UNK         0.0000 
  12791 C(8)       42.5241   46.2926   12.4630 C.3       1 UNK         0.0000 
  12792 H(1)       41.0518   50.1861   11.3746 H         1 UNK         0.0000 
  12793 H(2)       41.0345   52.6369   11.3587 H         1 UNK         0.0000 
  12794 H(3)       44.8941   52.6964   13.2386 H         1 UNK         0.0000 
  12795 H(4)       44.9069   50.2261   13.2530 H         1 UNK         0.0000 
  12796 H(5)       43.7641   54.5790   12.4649 H         1 UNK         0.0000 
  12797 H(6)       44.0000   48.2685   12.5580 H         1 UNK         0.0000 
  12798 H(7)       42.4458   45.8295   11.5138 H         1 UNK         0.0000 
  12799 H(8)       43.5208   46.1944   12.8070 H         1 UNK         0.0000 
  12800 H(9)       41.8436   45.7749   13.0878 H         1 UNK         0.0000 
  12801 O(1)       47.2246   62.4120   13.4097 O.3       1 UNK         0.0000 
  12802 O(2)       45.2267   61.1719   19.4537 O.2       1 UNK         0.0000 
  12803 N(1)       47.4079   61.1213   18.8228 N.am      1 UNK         0.0000 
  12804 C(1)       47.3084   61.4802   17.4599 C.ar      1 UNK         0.0000 
  12805 C(2)       46.2263   62.1661   16.9087 C.ar      1 UNK         0.0000 
  12806 C(3)       46.2192   62.4748   15.5516 C.ar      1 UNK         0.0000 
  12807 C(4)       47.2893   62.1122   14.7376 C.ar      1 UNK         0.0000 
  12808 C(5)       48.3849   61.4538   15.2947 C.ar      1 UNK         0.0000 
  12809 C(6)       48.3902   61.1409   16.6465 C.ar      1 UNK         0.0000 
  12810 C(7)       46.4171   60.9684   19.7163 C.2       1 UNK         0.0000 
  12811 C(8)       46.8580   60.5358   21.0890 C.3       1 UNK         0.0000 
  12812 H(1)       45.3857   62.4517   17.5290 H         1 UNK         0.0000 
  12813 H(2)       45.3684   63.0047   15.1413 H         1 UNK         0.0000 
  12814 H(3)       49.2280   61.1837   14.6710 H         1 UNK         0.0000 
  12815 H(4)       49.2408   60.6279   17.0780 H         1 UNK         0.0000 
  12816 H(5)       48.0980   62.3515   13.0039 H         1 UNK         0.0000 
  12817 H(6)       48.3338   60.8765   19.1403 H         1 UNK         0.0000 
  12818 H(7)       46.7797   61.3603   21.7490 H         1 UNK         0.0000 
  12819 H(8)       47.8547   60.1787   21.1093 H         1 UNK         0.0000 
  12820 H(9)       46.1775   59.8127   21.4570 H         1 UNK         0.0000 
  12821 O(1)       51.5780   51.0905   16.5945 O.3       1 UNK         0.0000 
  12822 O(2)       53.5759   57.2593   16.7103 O.2       1 UNK         0.0000 
  12823 N(1)       51.3947   56.6549   16.5226 N.am      1 UNK         0.0000 
  12824 C(1)       51.4942   55.2464   16.5738 C.ar      1 UNK         0.0000 
  12825 C(2)       52.5763   54.5582   17.1221 C.ar      1 UNK         0.0000 
  12826 C(3)       52.5834   53.1664   17.1257 C.ar      1 UNK         0.0000 
  12827 C(4)       51.5133   52.4518   16.5933 C.ar      1 UNK         0.0000 
  12828 C(5)       50.4177   53.1397   16.0731 C.ar      1 UNK         0.0000 
  12829 C(6)       50.4124   54.5273   16.0644 C.ar      1 UNK         0.0000 
  12830 C(7)       52.3855   57.5602   16.5694 C.2       1 UNK         0.0000 
  12831 C(8)       51.9446   58.9943   16.4484 C.3       1 UNK         0.0000 
  12832 H(1)       53.4169   55.1008   17.5368 H         1 UNK         0.0000 
  12833 H(2)       53.4342   52.6499   17.5527 H         1 UNK         0.0000 
  12834 H(3)       49.5746   52.5905   15.6728 H         1 UNK         0.0000 
  12835 H(4)       49.5618   55.0608   15.6585 H         1 UNK         0.0000 
  12836 H(5)       50.7046   50.7079   16.4465 H         1 UNK         0.0000 
  12837 H(6)       50.4687   57.0183   16.3534 H         1 UNK         0.0000 
  12838 H(7)       52.0229   59.4574   17.3976 H         1 UNK         0.0000 
  12839 H(8)       50.9479   59.0924   16.1044 H         1 UNK         0.0000 
  12840 H(9)       52.6251   59.5120   15.8236 H         1 UNK         0.0000 
  12841 O(1)       47.2442   48.6059   22.6641 O.3       1 UNK         0.0000 
  12842 O(2)       49.2420   49.8459   16.6201 O.2       1 UNK         0.0000 
  12843 N(1)       47.0608   49.8966   17.2510 N.am      1 UNK         0.0000 
  12844 C(1)       47.1603   49.5377   18.6139 C.ar      1 UNK         0.0000 
  12845 C(2)       48.2424   48.8518   19.1651 C.ar      1 UNK         0.0000 
  12846 C(3)       48.2495   48.5430   20.5223 C.ar      1 UNK         0.0000 
  12847 C(4)       47.1794   48.9057   21.3362 C.ar      1 UNK         0.0000 
  12848 C(5)       46.0838   49.5641   20.7791 C.ar      1 UNK         0.0000 
  12849 C(6)       46.0785   49.8769   19.4273 C.ar      1 UNK         0.0000 
  12850 C(7)       48.0516   50.0494   16.3575 C.2       1 UNK         0.0000 
  12851 C(8)       47.6107   50.4820   14.9848 C.3       1 UNK         0.0000 
  12852 H(1)       49.0830   48.5661   18.5448 H         1 UNK         0.0000 
  12853 H(2)       49.1003   48.0131   20.9325 H         1 UNK         0.0000 
  12854 H(3)       45.2407   49.8341   21.4028 H         1 UNK         0.0000 
  12855 H(4)       45.2279   50.3900   18.9958 H         1 UNK         0.0000 
  12856 H(5)       46.3707   48.6664   23.0699 H         1 UNK         0.0000 
  12857 H(6)       46.1349   50.1413   16.9335 H         1 UNK         0.0000 
  12858 H(7)       47.6890   49.6576   14.3248 H         1 UNK         0.0000 
  12859 H(8)       46.6140   50.8392   14.9645 H         1 UNK         0.0000 
  12860 H(9)       48.2912   51.2051   14.6168 H         1 UNK         0.0000 
  12861 O(1)       49.9677   59.9274   19.4793 O.3       1 UNK         0.0000 
  12862 O(2)       47.9698   53.7586   19.3635 O.2       1 UNK         0.0000 
  12863 N(1)       50.1510   54.3630   19.5512 N.am      1 UNK         0.0000 
  12864 C(1)       50.0515   55.7714   19.5000 C.ar      1 UNK         0.0000 
  12865 C(2)       48.9694   56.4596   18.9517 C.ar      1 UNK         0.0000 
  12866 C(3)       48.9623   57.8514   18.9482 C.ar      1 UNK         0.0000 
  12867 C(4)       50.0324   58.5660   19.4805 C.ar      1 UNK         0.0000 
  12868 C(5)       51.1280   57.8781   20.0007 C.ar      1 UNK         0.0000 
  12869 C(6)       51.1333   56.4906   20.0094 C.ar      1 UNK         0.0000 
  12870 C(7)       49.1602   53.4577   19.5044 C.2       1 UNK         0.0000 
  12871 C(8)       49.6011   52.0235   19.6254 C.3       1 UNK         0.0000 
  12872 H(1)       48.1288   55.9171   18.5370 H         1 UNK         0.0000 
  12873 H(2)       48.1115   58.3679   18.5211 H         1 UNK         0.0000 
  12874 H(3)       51.9711   58.4274   20.4010 H         1 UNK         0.0000 
  12875 H(4)       51.9839   55.9571   20.4154 H         1 UNK         0.0000 
  12876 H(5)       50.8411   60.3100   19.6273 H         1 UNK         0.0000 
  12877 H(6)       51.0770   53.9995   19.7204 H         1 UNK         0.0000 
  12878 H(7)       49.5228   51.5604   18.6762 H         1 UNK         0.0000 
  12879 H(8)       50.5978   51.9254   19.9694 H         1 UNK         0.0000 
  12880 H(9)       48.9206   51.5059   20.2502 H         1 UNK         0.0000 
  12881 O(1)       45.6338   53.4606   20.5721 O.3       1 UNK         0.0000 
  12882 O(2)       43.6360   52.2205   26.6161 O.2       1 UNK         0.0000 
  12883 N(1)       45.8171   52.1699   25.9852 N.am      1 UNK         0.0000 
  12884 C(1)       45.7176   52.5288   24.6223 C.ar      1 UNK         0.0000 
  12885 C(2)       44.6355   53.2147   24.0711 C.ar      1 UNK         0.0000 
  12886 C(3)       44.6285   53.5235   22.7140 C.ar      1 UNK         0.0000 
  12887 C(4)       45.6985   53.1608   21.9000 C.ar      1 UNK         0.0000 
  12888 C(5)       46.7941   52.5024   22.4571 C.ar      1 UNK         0.0000 
  12889 C(6)       46.7994   52.1896   23.8089 C.ar      1 UNK         0.0000 
  12890 C(7)       44.8263   52.0171   26.8787 C.2       1 UNK         0.0000 
  12891 C(8)       45.2672   51.5844   28.2514 C.3       1 UNK         0.0000 
  12892 H(1)       43.7950   53.5004   24.6914 H         1 UNK         0.0000 
  12893 H(2)       43.7776   54.0534   22.3037 H         1 UNK         0.0000 
  12894 H(3)       47.6373   52.2323   21.8334 H         1 UNK         0.0000 
  12895 H(4)       47.6500   51.6765   24.2404 H         1 UNK         0.0000 
  12896 H(5)       46.5072   53.4001   20.1663 H         1 UNK         0.0000 
  12897 H(6)       46.7431   51.9252   26.3027 H         1 UNK         0.0000 
  12898 H(7)       45.1889   52.4089   28.9114 H         1 UNK         0.0000 
  12899 H(8)       46.2640   51.2273   28.2717 H         1 UNK         0.0000 
  12900 H(9)       44.5867   50.8613   28.6194 H         1 UNK         0.0000 
  12901 O(1)       44.5010   56.8215   23.7569 O.3       1 UNK         0.0000 
  12902 O(2)       46.4989   62.9902   23.8727 O.2       1 UNK         0.0000 
  12903 N(1)       44.3177   62.3858   23.6850 N.am      1 UNK         0.0000 
  12904 C(1)       44.4172   60.9774   23.7362 C.ar      1 UNK         0.0000 
  12905 C(2)       45.4993   60.2892   24.2845 C.ar      1 UNK         0.0000 
  12906 C(3)       45.5064   58.8974   24.2881 C.ar      1 UNK         0.0000 
  12907 C(4)       44.4363   58.1828   23.7557 C.ar      1 UNK         0.0000 
  12908 C(5)       43.3407   58.8707   23.2355 C.ar      1 UNK         0.0000 
  12909 C(6)       43.3354   60.2582   23.2268 C.ar      1 UNK         0.0000 
  12910 C(7)       45.3085   63.2911   23.7318 C.2       1 UNK         0.0000 
  12911 C(8)       44.8676   64.7253   23.6108 C.3       1 UNK         0.0000 
  12912 H(1)       46.3399   60.8317   24.6992 H         1 UNK         0.0000 
  12913 H(2)       46.3572   58.3809   24.7151 H         1 UNK         0.0000 
  12914 H(3)       42.4976   58.3214   22.8352 H         1 UNK         0.0000 
  12915 H(4)       42.4848   60.7917   22.8209 H         1 UNK         0.0000 
  12916 H(5)       43.6276   56.4389   23.6089 H         1 UNK         0.0000 
  12917 H(6)       43.3917   62.7493   23.5158 H         1 UNK         0.0000 
  12918 H(7)       44.9459   65.1884   24.5600 H         1 UNK         0.0000 
  12919 H(8)       43.8709   64.8234   23.2668 H         1 UNK         0.0000 
  12920 H(9)       45.5481   65.2429   22.9860 H         1 UNK         0.0000 
  12921 O(1)       48.8349   51.8263    8.3393 O.3       1 UNK         0.0000 
  12922 O(2)       50.8327   53.0663    2.2953 O.2       1 UNK         0.0000 
  12923 N(1)       48.6516   53.1170    2.9262 N.am      1 UNK         0.0000 
  12924 C(1)       48.7511   52.7581    4.2891 C.ar      1 UNK         0.0000 
  12925 C(2)       49.8332   52.0722    4.8403 C.ar      1 UNK         0.0000 
  12926 C(3)       49.8402   51.7634    6.1975 C.ar      1 UNK         0.0000 
  12927 C(4)       48.7702   52.1261    7.0114 C.ar      1 UNK         0.0000 
  12928 C(5)       47.6746   52.7845    6.4543 C.ar      1 UNK         0.0000 
  12929 C(6)       47.6693   53.0973    5.1025 C.ar      1 UNK         0.0000 
  12930 C(7)       49.6424   53.2698    2.0327 C.2       1 UNK         0.0000 
  12931 C(8)       49.2015   53.7024    0.6600 C.3       1 UNK         0.0000 
  12932 H(1)       50.6738   51.7865    4.2200 H         1 UNK         0.0000 
  12933 H(2)       50.6911   51.2335    6.6077 H         1 UNK         0.0000 
  12934 H(3)       46.8314   53.0545    7.0780 H         1 UNK         0.0000 
  12935 H(4)       46.8187   53.6104    4.6710 H         1 UNK         0.0000 
  12936 H(5)       47.9615   51.8868    8.7451 H         1 UNK         0.0000 
  12937 H(6)       47.7256   53.3617    2.6087 H         1 UNK         0.0000 
  12938 H(7)       49.2798   52.8780    0.0000 H         1 UNK         0.0000 
  12939 H(8)       48.2047   54.0596    0.6397 H         1 UNK         0.0000 
  12940 H(9)       49.8820   54.4255    0.2920 H         1 UNK         0.0000 
  12941 O(1)       51.5584   63.1478    5.1545 O.3       1 UNK         0.0000 
  12942 O(2)       49.5606   56.9790    5.0387 O.2       1 UNK         0.0000 
  12943 N(1)       51.7418   57.5834    5.2264 N.am      1 UNK         0.0000 
  12944 C(1)       51.6423   58.9918    5.1752 C.ar      1 UNK         0.0000 
  12945 C(2)       50.5602   59.6800    4.6269 C.ar      1 UNK         0.0000 
  12946 C(3)       50.5531   61.0718    4.6234 C.ar      1 UNK         0.0000 
  12947 C(4)       51.6232   61.7864    5.1557 C.ar      1 UNK         0.0000 
  12948 C(5)       52.7188   61.0985    5.6759 C.ar      1 UNK         0.0000 
  12949 C(6)       52.7241   59.7110    5.6846 C.ar      1 UNK         0.0000 
  12950 C(7)       50.7510   56.6781    5.1796 C.2       1 UNK         0.0000 
  12951 C(8)       51.1919   55.2439    5.3006 C.3       1 UNK         0.0000 
  12952 H(1)       49.7196   59.1375    4.2122 H         1 UNK         0.0000 
  12953 H(2)       49.7023   61.5883    4.1963 H         1 UNK         0.0000 
  12954 H(3)       53.5619   61.6478    6.0762 H         1 UNK         0.0000 
  12955 H(4)       53.5747   59.1775    6.0906 H         1 UNK         0.0000 
  12956 H(5)       52.4319   63.5304    5.3025 H         1 UNK         0.0000 
  12957 H(6)       52.6677   57.2199    5.3956 H         1 UNK         0.0000 
  12958 H(7)       51.1136   54.7808    4.3514 H         1 UNK         0.0000 
  12959 H(8)       52.1886   55.1458    5.6446 H         1 UNK         0.0000 
  12960 H(9)       50.5114   54.7263    5.9254 H         1 UNK         0.0000 
  12961 O(1)       48.8153   71.3634    6.2473 O.3       1 UNK         0.0000 
  12962 O(2)       46.8175   70.1233   12.2913 O.2       1 UNK         0.0000 
  12963 N(1)       48.9987   70.0726   11.6604 N.am      1 UNK         0.0000 
  12964 C(1)       48.8992   70.4316   10.2975 C.ar      1 UNK         0.0000 
  12965 C(2)       47.8171   71.1174    9.7463 C.ar      1 UNK         0.0000 
  12966 C(3)       47.8100   71.4262    8.3892 C.ar      1 UNK         0.0000 
  12967 C(4)       48.8800   71.0635    7.5752 C.ar      1 UNK         0.0000 
  12968 C(5)       49.9757   70.4052    8.1323 C.ar      1 UNK         0.0000 
  12969 C(6)       49.9810   70.0923    9.4841 C.ar      1 UNK         0.0000 
  12970 C(7)       48.0079   69.9198   12.5539 C.2       1 UNK         0.0000 
  12971 C(8)       48.4487   69.4872   13.9266 C.3       1 UNK         0.0000 
  12972 H(1)       46.9765   71.4031   10.3666 H         1 UNK         0.0000 
  12973 H(2)       46.9592   71.9561    7.9789 H         1 UNK         0.0000 
  12974 H(3)       50.8188   70.1351    7.5086 H         1 UNK         0.0000 
  12975 H(4)       50.8316   69.5792    9.9156 H         1 UNK         0.0000 
  12976 H(5)       49.6888   71.3028    5.8415 H         1 UNK         0.0000 
  12977 H(6)       49.9246   69.8279   11.9779 H         1 UNK         0.0000 
  12978 H(7)       48.3705   70.3116   14.5866 H         1 UNK         0.0000 
  12979 H(8)       49.4455   69.1300   13.9469 H         1 UNK         0.0000 
  12980 H(9)       47.7683   68.7641   14.2946 H         1 UNK         0.0000 
  12981 O(1)       53.1688   60.0419    9.4321 O.3       1 UNK         0.0000 
  12982 O(2)       55.1666   66.2106    9.5479 O.2       1 UNK         0.0000 
  12983 N(1)       52.9855   65.6062    9.3602 N.am      1 UNK         0.0000 
  12984 C(1)       53.0850   64.1978    9.4114 C.ar      1 UNK         0.0000 
  12985 C(2)       54.1671   63.5096    9.9597 C.ar      1 UNK         0.0000 
  12986 C(3)       54.1741   62.1178    9.9633 C.ar      1 UNK         0.0000 
  12987 C(4)       53.1041   61.4032    9.4309 C.ar      1 UNK         0.0000 
  12988 C(5)       52.0085   62.0911    8.9107 C.ar      1 UNK         0.0000 
  12989 C(6)       52.0032   63.4786    8.9020 C.ar      1 UNK         0.0000 
  12990 C(7)       53.9763   66.5115    9.4070 C.2       1 UNK         0.0000 
  12991 C(8)       53.5354   67.9457    9.2860 C.3       1 UNK         0.0000 
  12992 H(1)       55.0076   64.0521   10.3744 H         1 UNK         0.0000 
  12993 H(2)       55.0250   61.6013   10.3903 H         1 UNK         0.0000 
  12994 H(3)       51.1653   61.5418    8.5104 H         1 UNK         0.0000 
  12995 H(4)       51.1526   64.0121    8.4961 H         1 UNK         0.0000 
  12996 H(5)       52.2954   59.6593    9.2841 H         1 UNK         0.0000 
  12997 H(6)       52.0595   65.9697    9.1910 H         1 UNK         0.0000 
  12998 H(7)       53.6137   68.4088   10.2352 H         1 UNK         0.0000 
  12999 H(8)       52.5386   68.0438    8.9420 H         1 UNK         0.0000 
  13000 H(9)       54.2159   68.4633    8.6612 H         1 UNK         0.0000 
  13001 O(1)       43.3487   72.2396   15.5017 O.3       1 UNK         0.0000 
  13002 O(2)       45.3465   73.4796    9.4577 O.2       1 UNK         0.0000 
  13003 N(1)       43.1654   73.5303   10.0886 N.am      1 UNK         0.0000 
  13004 C(1)       43.2648   73.1714   11.4515 C.ar      1 UNK         0.0000 
  13005 C(2)       44.3470   72.4855   12.0027 C.ar      1 UNK         0.0000 
  13006 C(3)       44.3540   72.1767   13.3599 C.ar      1 UNK         0.0000 
  13007 C(4)       43.2840   72.5394   14.1738 C.ar      1 UNK         0.0000 
  13008 C(5)       42.1884   73.1977   13.6167 C.ar      1 UNK         0.0000 
  13009 C(6)       42.1831   73.5106   12.2649 C.ar      1 UNK         0.0000 
  13010 C(7)       44.1562   73.6831    9.1951 C.2       1 UNK         0.0000 
  13011 C(8)       43.7153   74.1157    7.8224 C.3       1 UNK         0.0000 
  13012 H(1)       45.1875   72.1998   11.3824 H         1 UNK         0.0000 
  13013 H(2)       45.2048   71.6468   13.7701 H         1 UNK         0.0000 
  13014 H(3)       41.3452   73.4678   14.2404 H         1 UNK         0.0000 
  13015 H(4)       41.3325   74.0237   11.8334 H         1 UNK         0.0000 
  13016 H(5)       42.4753   72.3001   15.9075 H         1 UNK         0.0000 
  13017 H(6)       42.2394   73.7750    9.7711 H         1 UNK         0.0000 
  13018 H(7)       43.7936   73.2913    7.1624 H         1 UNK         0.0000 
  13019 H(8)       42.7185   74.4729    7.8021 H         1 UNK         0.0000 
  13020 H(9)       44.3958   74.8388    7.4544 H         1 UNK         0.0000 
  13021 O(1)       44.4814   68.8787   12.3169 O.3       1 UNK         0.0000 
  13022 O(2)       42.4836   62.7099   12.2011 O.2       1 UNK         0.0000 
  13023 N(1)       44.6648   63.3143   12.3888 N.am      1 UNK         0.0000 
  13024 C(1)       44.5653   64.7228   12.3376 C.ar      1 UNK         0.0000 
  13025 C(2)       43.4832   65.4110   11.7893 C.ar      1 UNK         0.0000 
  13026 C(3)       43.4761   66.8028   11.7858 C.ar      1 UNK         0.0000 
  13027 C(4)       44.5462   67.5174   12.3181 C.ar      1 UNK         0.0000 
  13028 C(5)       45.6418   66.8295   12.8383 C.ar      1 UNK         0.0000 
  13029 C(6)       45.6471   65.4419   12.8470 C.ar      1 UNK         0.0000 
  13030 C(7)       43.6740   62.4090   12.3420 C.2       1 UNK         0.0000 
  13031 C(8)       44.1149   60.9749   12.4630 C.3       1 UNK         0.0000 
  13032 H(1)       42.6426   64.8685   11.3746 H         1 UNK         0.0000 
  13033 H(2)       42.6253   67.3193   11.3587 H         1 UNK         0.0000 
  13034 H(3)       46.4849   67.3787   13.2386 H         1 UNK         0.0000 
  13035 H(4)       46.4977   64.9084   13.2530 H         1 UNK         0.0000 
  13036 H(5)       45.3549   69.2613   12.4649 H         1 UNK         0.0000 
  13037 H(6)       45.5907   62.9509   12.5580 H         1 UNK         0.0000 
  13038 H(7)       44.0366   60.5118   11.5138 H         1 UNK         0.0000 
  13039 H(8)       45.1116   60.8768   12.8070 H         1 UNK         0.0000 
  13040 H(9)       43.4344   60.4572   13.0878 H         1 UNK         0.0000 
  13041 O(1)       48.8153   77.0943   13.4097 O.3       1 UNK         0.0000 
  13042 O(2)       46.8175   75.8542   19.4537 O.2       1 UNK         0.0000 
  13043 N(1)       48.9987   75.8036   18.8228 N.am      1 UNK         0.0000 
  13044 C(1)       48.8992   76.1625   17.4599 C.ar      1 UNK         0.0000 
  13045 C(2)       47.8171   76.8484   16.9087 C.ar      1 UNK         0.0000 
  13046 C(3)       47.8100   77.1572   15.5516 C.ar      1 UNK         0.0000 
  13047 C(4)       48.8800   76.7945   14.7376 C.ar      1 UNK         0.0000 
  13048 C(5)       49.9757   76.1361   15.2947 C.ar      1 UNK         0.0000 
  13049 C(6)       49.9810   75.8232   16.6465 C.ar      1 UNK         0.0000 
  13050 C(7)       48.0079   75.6508   19.7163 C.2       1 UNK         0.0000 
  13051 C(8)       48.4487   75.2181   21.0890 C.3       1 UNK         0.0000 
  13052 H(1)       46.9765   77.1341   17.5290 H         1 UNK         0.0000 
  13053 H(2)       46.9592   77.6871   15.1413 H         1 UNK         0.0000 
  13054 H(3)       50.8188   75.8660   14.6710 H         1 UNK         0.0000 
  13055 H(4)       50.8316   75.3102   17.0780 H         1 UNK         0.0000 
  13056 H(5)       49.6888   77.0338   13.0039 H         1 UNK         0.0000 
  13057 H(6)       49.9246   75.5589   19.1403 H         1 UNK         0.0000 
  13058 H(7)       48.3705   76.0426   21.7490 H         1 UNK         0.0000 
  13059 H(8)       49.4455   74.8610   21.1093 H         1 UNK         0.0000 
  13060 H(9)       47.7683   74.4950   21.4570 H         1 UNK         0.0000 
  13061 O(1)       53.1688   65.7728   16.5945 O.3       1 UNK         0.0000 
  13062 O(2)       55.1666   71.9416   16.7103 O.2       1 UNK         0.0000 
  13063 N(1)       52.9855   71.3372   16.5226 N.am      1 UNK         0.0000 
  13064 C(1)       53.0850   69.9288   16.5738 C.ar      1 UNK         0.0000 
  13065 C(2)       54.1671   69.2405   17.1221 C.ar      1 UNK         0.0000 
  13066 C(3)       54.1741   67.8487   17.1257 C.ar      1 UNK         0.0000 
  13067 C(4)       53.1041   67.1341   16.5933 C.ar      1 UNK         0.0000 
  13068 C(5)       52.0085   67.8221   16.0731 C.ar      1 UNK         0.0000 
  13069 C(6)       52.0032   69.2096   16.0644 C.ar      1 UNK         0.0000 
  13070 C(7)       53.9763   72.2425   16.5694 C.2       1 UNK         0.0000 
  13071 C(8)       53.5354   73.6766   16.4484 C.3       1 UNK         0.0000 
  13072 H(1)       55.0076   69.7831   17.5368 H         1 UNK         0.0000 
  13073 H(2)       55.0250   67.3323   17.5527 H         1 UNK         0.0000 
  13074 H(3)       51.1653   67.2728   15.6728 H         1 UNK         0.0000 
  13075 H(4)       51.1526   69.7431   15.6585 H         1 UNK         0.0000 
  13076 H(5)       52.2954   65.3902   16.4465 H         1 UNK         0.0000 
  13077 H(6)       52.0595   71.7007   16.3534 H         1 UNK         0.0000 
  13078 H(7)       53.6137   74.1397   17.3976 H         1 UNK         0.0000 
  13079 H(8)       52.5386   73.7748   16.1044 H         1 UNK         0.0000 
  13080 H(9)       54.2159   74.1943   15.8236 H         1 UNK         0.0000 
  13081 O(1)       48.8349   63.2882   22.6641 O.3       1 UNK         0.0000 
  13082 O(2)       50.8327   64.5283   16.6201 O.2       1 UNK         0.0000 
  13083 N(1)       48.6516   64.5789   17.2510 N.am      1 UNK         0.0000 
  13084 C(1)       48.7511   64.2200   18.6139 C.ar      1 UNK         0.0000 
  13085 C(2)       49.8332   63.5341   19.1651 C.ar      1 UNK         0.0000 
  13086 C(3)       49.8402   63.2253   20.5223 C.ar      1 UNK         0.0000 
  13087 C(4)       48.7702   63.5880   21.3362 C.ar      1 UNK         0.0000 
  13088 C(5)       47.6746   64.2464   20.7791 C.ar      1 UNK         0.0000 
  13089 C(6)       47.6693   64.5593   19.4273 C.ar      1 UNK         0.0000 
  13090 C(7)       49.6424   64.7317   16.3575 C.2       1 UNK         0.0000 
  13091 C(8)       49.2015   65.1644   14.9848 C.3       1 UNK         0.0000 
  13092 H(1)       50.6738   63.2484   18.5448 H         1 UNK         0.0000 
  13093 H(2)       50.6911   62.6954   20.9325 H         1 UNK         0.0000 
  13094 H(3)       46.8314   64.5165   21.4028 H         1 UNK         0.0000 
  13095 H(4)       46.8187   65.0723   18.9958 H         1 UNK         0.0000 
  13096 H(5)       47.9615   63.3487   23.0699 H         1 UNK         0.0000 
  13097 H(6)       47.7256   64.8236   16.9335 H         1 UNK         0.0000 
  13098 H(7)       49.2798   64.3399   14.3248 H         1 UNK         0.0000 
  13099 H(8)       48.2047   65.5215   14.9645 H         1 UNK         0.0000 
  13100 H(9)       49.8820   65.8875   14.6168 H         1 UNK         0.0000 
  13101 O(1)       51.5584   74.6097   19.4793 O.3       1 UNK         0.0000 
  13102 O(2)       49.5606   68.4409   19.3635 O.2       1 UNK         0.0000 
  13103 N(1)       51.7418   69.0453   19.5512 N.am      1 UNK         0.0000 
  13104 C(1)       51.6423   70.4537   19.5000 C.ar      1 UNK         0.0000 
  13105 C(2)       50.5602   71.1420   18.9517 C.ar      1 UNK         0.0000 
  13106 C(3)       50.5531   72.5338   18.9482 C.ar      1 UNK         0.0000 
  13107 C(4)       51.6232   73.2484   19.4805 C.ar      1 UNK         0.0000 
  13108 C(5)       52.7188   72.5605   20.0007 C.ar      1 UNK         0.0000 
  13109 C(6)       52.7241   71.1729   20.0094 C.ar      1 UNK         0.0000 
  13110 C(7)       50.7510   68.1400   19.5044 C.2       1 UNK         0.0000 
  13111 C(8)       51.1919   66.7059   19.6254 C.3       1 UNK         0.0000 
  13112 H(1)       49.7196   70.5994   18.5370 H         1 UNK         0.0000 
  13113 H(2)       49.7023   73.0502   18.5211 H         1 UNK         0.0000 
  13114 H(3)       53.5619   73.1097   20.4010 H         1 UNK         0.0000 
  13115 H(4)       53.5747   70.6394   20.4154 H         1 UNK         0.0000 
  13116 H(5)       52.4319   74.9923   19.6273 H         1 UNK         0.0000 
  13117 H(6)       52.6677   68.6818   19.7204 H         1 UNK         0.0000 
  13118 H(7)       51.1136   66.2428   18.6762 H         1 UNK         0.0000 
  13119 H(8)       52.1886   66.6077   19.9694 H         1 UNK         0.0000 
  13120 H(9)       50.5114   66.1882   20.2502 H         1 UNK         0.0000 
  13121 O(1)       47.2246   68.1430   20.5721 O.3       1 UNK         0.0000 
  13122 O(2)       45.2267   66.9029   26.6161 O.2       1 UNK         0.0000 
  13123 N(1)       47.4079   66.8522   25.9852 N.am      1 UNK         0.0000 
  13124 C(1)       47.3084   67.2112   24.6223 C.ar      1 UNK         0.0000 
  13125 C(2)       46.2263   67.8970   24.0711 C.ar      1 UNK         0.0000 
  13126 C(3)       46.2192   68.2058   22.7140 C.ar      1 UNK         0.0000 
  13127 C(4)       47.2893   67.8431   21.9000 C.ar      1 UNK         0.0000 
  13128 C(5)       48.3849   67.1848   22.4571 C.ar      1 UNK         0.0000 
  13129 C(6)       48.3902   66.8719   23.8089 C.ar      1 UNK         0.0000 
  13130 C(7)       46.4171   66.6994   26.8787 C.2       1 UNK         0.0000 
  13131 C(8)       46.8580   66.2668   28.2514 C.3       1 UNK         0.0000 
  13132 H(1)       45.3857   68.1827   24.6914 H         1 UNK         0.0000 
  13133 H(2)       45.3684   68.7357   22.3037 H         1 UNK         0.0000 
  13134 H(3)       49.2280   66.9147   21.8334 H         1 UNK         0.0000 
  13135 H(4)       49.2408   66.3588   24.2404 H         1 UNK         0.0000 
  13136 H(5)       48.0980   68.0824   20.1663 H         1 UNK         0.0000 
  13137 H(6)       48.3338   66.6075   26.3027 H         1 UNK         0.0000 
  13138 H(7)       46.7797   67.0912   28.9114 H         1 UNK         0.0000 
  13139 H(8)       47.8547   65.9096   28.2717 H         1 UNK         0.0000 
  13140 H(9)       46.1775   65.5437   28.6194 H         1 UNK         0.0000 
  13141 O(1)       46.0918   71.5038   23.7569 O.3       1 UNK         0.0000 
  13142 O(2)       48.0896   77.6726   23.8727 O.2       1 UNK         0.0000 
  13143 N(1)       45.9085   77.0682   23.6850 N.am      1 UNK         0.0000 
  13144 C(1)       46.0080   75.6597   23.7362 C.ar      1 UNK         0.0000 
  13145 C(2)       47.0901   74.9715   24.2845 C.ar      1 UNK         0.0000 
  13146 C(3)       47.0971   73.5797   24.2881 C.ar      1 UNK         0.0000 
  13147 C(4)       46.0271   72.8651   23.7557 C.ar      1 UNK         0.0000 
  13148 C(5)       44.9315   73.5530   23.2355 C.ar      1 UNK         0.0000 
  13149 C(6)       44.9262   74.9406   23.2268 C.ar      1 UNK         0.0000 
  13150 C(7)       46.8993   77.9735   23.7318 C.2       1 UNK         0.0000 
  13151 C(8)       46.4584   79.4076   23.6108 C.3       1 UNK         0.0000 
  13152 H(1)       47.9306   75.5140   24.6992 H         1 UNK         0.0000 
  13153 H(2)       47.9480   73.0632   24.7151 H         1 UNK         0.0000 
  13154 H(3)       44.0883   73.0038   22.8352 H         1 UNK         0.0000 
  13155 H(4)       44.0756   75.4741   22.8209 H         1 UNK         0.0000 
  13156 H(5)       45.2184   71.1212   23.6089 H         1 UNK         0.0000 
  13157 H(6)       44.9825   77.4316   23.5158 H         1 UNK         0.0000 
  13158 H(7)       46.5367   79.8707   24.5600 H         1 UNK         0.0000 
  13159 H(8)       45.4616   79.5057   23.2668 H         1 UNK         0.0000 
  13160 H(9)       47.1389   79.9253   22.9860 H         1 UNK         0.0000 
  13161 O(1)       50.4257   66.5086    8.3393 O.3       1 UNK         0.0000 
  13162 O(2)       52.4235   67.7487    2.2953 O.2       1 UNK         0.0000 
  13163 N(1)       50.2424   67.7993    2.9262 N.am      1 UNK         0.0000 
  13164 C(1)       50.3418   67.4404    4.2891 C.ar      1 UNK         0.0000 
  13165 C(2)       51.4240   66.7545    4.8403 C.ar      1 UNK         0.0000 
  13166 C(3)       51.4310   66.4457    6.1975 C.ar      1 UNK         0.0000 
  13167 C(4)       50.3610   66.8084    7.0114 C.ar      1 UNK         0.0000 
  13168 C(5)       49.2654   67.4668    6.4543 C.ar      1 UNK         0.0000 
  13169 C(6)       49.2601   67.7797    5.1025 C.ar      1 UNK         0.0000 
  13170 C(7)       51.2332   67.9521    2.0327 C.2       1 UNK         0.0000 
  13171 C(8)       50.7923   68.3848    0.6600 C.3       1 UNK         0.0000 
  13172 H(1)       52.2645   66.4688    4.2200 H         1 UNK         0.0000 
  13173 H(2)       52.2818   65.9158    6.6077 H         1 UNK         0.0000 
  13174 H(3)       48.4222   67.7369    7.0780 H         1 UNK         0.0000 
  13175 H(4)       48.4095   68.2927    4.6710 H         1 UNK         0.0000 
  13176 H(5)       49.5523   66.5691    8.7451 H         1 UNK         0.0000 
  13177 H(6)       49.3164   68.0440    2.6087 H         1 UNK         0.0000 
  13178 H(7)       50.8706   67.5603    0.0000 H         1 UNK         0.0000 
  13179 H(8)       49.7955   68.7419    0.6397 H         1 UNK         0.0000 
  13180 H(9)       51.4728   69.1079    0.2920 H         1 UNK         0.0000 
  13181 O(1)       53.1492   77.8301    5.1545 O.3       1 UNK         0.0000 
  13182 O(2)       51.1514   71.6613    5.0387 O.2       1 UNK         0.0000 
  13183 N(1)       53.3326   72.2657    5.2264 N.am      1 UNK         0.0000 
  13184 C(1)       53.2331   73.6741    5.1752 C.ar      1 UNK         0.0000 
  13185 C(2)       52.1509   74.3624    4.6269 C.ar      1 UNK         0.0000 
  13186 C(3)       52.1439   75.7542    4.6234 C.ar      1 UNK         0.0000 
  13187 C(4)       53.2139   76.4688    5.1557 C.ar      1 UNK         0.0000 
  13188 C(5)       54.3095   75.7809    5.6759 C.ar      1 UNK         0.0000 
  13189 C(6)       54.3149   74.3933    5.6846 C.ar      1 UNK         0.0000 
  13190 C(7)       52.3418   71.3604    5.1796 C.2       1 UNK         0.0000 
  13191 C(8)       52.7826   69.9263    5.3006 C.3       1 UNK         0.0000 
  13192 H(1)       51.3104   73.8198    4.2122 H         1 UNK         0.0000 
  13193 H(2)       51.2931   76.2706    4.1963 H         1 UNK         0.0000 
  13194 H(3)       55.1527   76.3301    6.0762 H         1 UNK         0.0000 
  13195 H(4)       55.1655   73.8598    6.0906 H         1 UNK         0.0000 
  13196 H(5)       54.0227   78.2127    5.3025 H         1 UNK         0.0000 
  13197 H(6)       54.2585   71.9022    5.3956 H         1 UNK         0.0000 
  13198 H(7)       52.7044   69.4632    4.3514 H         1 UNK         0.0000 
  13199 H(8)       53.7794   69.8281    5.6446 H         1 UNK         0.0000 
  13200 H(9)       52.1022   69.4086    5.9254 H         1 UNK         0.0000 
  13201 O(1)       50.4061   86.0457    6.2473 O.3       1 UNK         0.0000 
  13202 O(2)       48.4083   84.8056   12.2913 O.2       1 UNK         0.0000 
  13203 N(1)       50.5894   84.7550   11.6604 N.am      1 UNK         0.0000 
  13204 C(1)       50.4900   85.1139   10.2975 C.ar      1 UNK         0.0000 
  13205 C(2)       49.4078   85.7998    9.7463 C.ar      1 UNK         0.0000 
  13206 C(3)       49.4008   86.1085    8.3892 C.ar      1 UNK         0.0000 
  13207 C(4)       50.4708   85.7459    7.5752 C.ar      1 UNK         0.0000 
  13208 C(5)       51.5664   85.0875    8.1323 C.ar      1 UNK         0.0000 
  13209 C(6)       51.5717   84.7746    9.4841 C.ar      1 UNK         0.0000 
  13210 C(7)       49.5987   84.6021   12.5539 C.2       1 UNK         0.0000 
  13211 C(8)       50.0395   84.1695   13.9266 C.3       1 UNK         0.0000 
  13212 H(1)       48.5673   86.0854   10.3666 H         1 UNK         0.0000 
  13213 H(2)       48.5500   86.6384    7.9789 H         1 UNK         0.0000 
  13214 H(3)       52.4096   84.8174    7.5086 H         1 UNK         0.0000 
  13215 H(4)       52.4224   84.2615    9.9156 H         1 UNK         0.0000 
  13216 H(5)       51.2796   85.9852    5.8415 H         1 UNK         0.0000 
  13217 H(6)       51.5154   84.5102   11.9779 H         1 UNK         0.0000 
  13218 H(7)       49.9613   84.9940   14.5866 H         1 UNK         0.0000 
  13219 H(8)       51.0363   83.8124   13.9469 H         1 UNK         0.0000 
  13220 H(9)       49.3590   83.4464   14.2946 H         1 UNK         0.0000 
  13221 O(1)       54.7596   74.7242    9.4321 O.3       1 UNK         0.0000 
  13222 O(2)       56.7574   80.8930    9.5479 O.2       1 UNK         0.0000 
  13223 N(1)       54.5763   80.2886    9.3602 N.am      1 UNK         0.0000 
  13224 C(1)       54.6757   78.8801    9.4114 C.ar      1 UNK         0.0000 
  13225 C(2)       55.7579   78.1919    9.9597 C.ar      1 UNK         0.0000 
  13226 C(3)       55.7649   76.8001    9.9633 C.ar      1 UNK         0.0000 
  13227 C(4)       54.6949   76.0855    9.4309 C.ar      1 UNK         0.0000 
  13228 C(5)       53.5993   76.7734    8.9107 C.ar      1 UNK         0.0000 
  13229 C(6)       53.5940   78.1610    8.9020 C.ar      1 UNK         0.0000 
  13230 C(7)       55.5671   81.1939    9.4070 C.2       1 UNK         0.0000 
  13231 C(8)       55.1262   82.6280    9.2860 C.3       1 UNK         0.0000 
  13232 H(1)       56.5984   78.7344   10.3744 H         1 UNK         0.0000 
  13233 H(2)       56.6157   76.2836   10.3903 H         1 UNK         0.0000 
  13234 H(3)       52.7561   76.2242    8.5104 H         1 UNK         0.0000 
  13235 H(4)       52.7434   78.6945    8.4961 H         1 UNK         0.0000 
  13236 H(5)       53.8862   74.3416    9.2841 H         1 UNK         0.0000 
  13237 H(6)       53.6503   80.6520    9.1910 H         1 UNK         0.0000 
  13238 H(7)       55.2045   83.0911   10.2352 H         1 UNK         0.0000 
  13239 H(8)       54.1294   82.7261    8.9420 H         1 UNK         0.0000 
  13240 H(9)       55.8067   83.1457    8.6612 H         1 UNK         0.0000 
  13241 O(1)       44.9395   86.9219   15.5017 O.3       1 UNK         0.0000 
  13242 O(2)       46.9373   88.1620    9.4577 O.2       1 UNK         0.0000 
  13243 N(1)       44.7562   88.2126   10.0886 N.am      1 UNK         0.0000 
  13244 C(1)       44.8556   87.8537   11.4515 C.ar      1 UNK         0.0000 
  13245 C(2)       45.9378   87.1678   12.0027 C.ar      1 UNK         0.0000 
  13246 C(3)       45.9448   86.8590   13.3599 C.ar      1 UNK         0.0000 
  13247 C(4)       44.8748   87.2217   14.1738 C.ar      1 UNK         0.0000 
  13248 C(5)       43.7792   87.8801   13.6167 C.ar      1 UNK         0.0000 
  13249 C(6)       43.7739   88.1930   12.2649 C.ar      1 UNK         0.0000 
  13250 C(7)       45.7469   88.3654    9.1951 C.2       1 UNK         0.0000 
  13251 C(8)       45.3061   88.7981    7.8224 C.3       1 UNK         0.0000 
  13252 H(1)       46.7783   86.8821   11.3824 H         1 UNK         0.0000 
  13253 H(2)       46.7956   86.3291   13.7701 H         1 UNK         0.0000 
  13254 H(3)       42.9360   88.1502   14.2404 H         1 UNK         0.0000 
  13255 H(4)       42.9233   88.7060   11.8334 H         1 UNK         0.0000 
  13256 H(5)       44.0661   86.9824   15.9075 H         1 UNK         0.0000 
  13257 H(6)       43.8302   88.4573    9.7711 H         1 UNK         0.0000 
  13258 H(7)       45.3844   87.9736    7.1624 H         1 UNK         0.0000 
  13259 H(8)       44.3093   89.1552    7.8021 H         1 UNK         0.0000 
  13260 H(9)       45.9866   89.5212    7.4544 H         1 UNK         0.0000 
  13261 O(1)       46.0722   83.5611   12.3169 O.3       1 UNK         0.0000 
  13262 O(2)       44.0744   77.3923   12.2011 O.2       1 UNK         0.0000 
  13263 N(1)       46.2556   77.9967   12.3888 N.am      1 UNK         0.0000 
  13264 C(1)       46.1561   79.4051   12.3376 C.ar      1 UNK         0.0000 
  13265 C(2)       45.0739   80.0933   11.7893 C.ar      1 UNK         0.0000 
  13266 C(3)       45.0669   81.4851   11.7858 C.ar      1 UNK         0.0000 
  13267 C(4)       46.1369   82.1997   12.3181 C.ar      1 UNK         0.0000 
  13268 C(5)       47.2325   81.5118   12.8383 C.ar      1 UNK         0.0000 
  13269 C(6)       47.2379   80.1243   12.8470 C.ar      1 UNK         0.0000 
  13270 C(7)       45.2648   77.0914   12.3420 C.2       1 UNK         0.0000 
  13271 C(8)       45.7056   75.6572   12.4630 C.3       1 UNK         0.0000 
  13272 H(1)       44.2334   79.5508   11.3746 H         1 UNK         0.0000 
  13273 H(2)       44.2161   82.0016   11.3587 H         1 UNK         0.0000 
  13274 H(3)       48.0757   82.0611   13.2386 H         1 UNK         0.0000 
  13275 H(4)       48.0885   79.5908   13.2530 H         1 UNK         0.0000 
  13276 H(5)       46.9457   83.9437   12.4649 H         1 UNK         0.0000 
  13277 H(6)       47.1815   77.6332   12.5580 H         1 UNK         0.0000 
  13278 H(7)       45.6274   75.1941   11.5138 H         1 UNK         0.0000 
  13279 H(8)       46.7024   75.5591   12.8070 H         1 UNK         0.0000 
  13280 H(9)       45.0252   75.1396   13.0878 H         1 UNK         0.0000 
  13281 O(1)       50.4061   91.7766   13.4097 O.3       1 UNK         0.0000 
  13282 O(2)       48.4083   90.5366   19.4537 O.2       1 UNK         0.0000 
  13283 N(1)       50.5894   90.4859   18.8228 N.am      1 UNK         0.0000 
  13284 C(1)       50.4900   90.8448   17.4599 C.ar      1 UNK         0.0000 
  13285 C(2)       49.4078   91.5307   16.9087 C.ar      1 UNK         0.0000 
  13286 C(3)       49.4008   91.8395   15.5516 C.ar      1 UNK         0.0000 
  13287 C(4)       50.4708   91.4768   14.7376 C.ar      1 UNK         0.0000 
  13288 C(5)       51.5664   90.8185   15.2947 C.ar      1 UNK         0.0000 
  13289 C(6)       51.5717   90.5056   16.6465 C.ar      1 UNK         0.0000 
  13290 C(7)       49.5987   90.3331   19.7163 C.2       1 UNK         0.0000 
  13291 C(8)       50.0395   89.9005   21.0890 C.3       1 UNK         0.0000 
  13292 H(1)       48.5673   91.8164   17.5290 H         1 UNK         0.0000 
  13293 H(2)       48.5500   92.3694   15.1413 H         1 UNK         0.0000 
  13294 H(3)       52.4096   90.5484   14.6710 H         1 UNK         0.0000 
  13295 H(4)       52.4224   89.9925   17.0780 H         1 UNK         0.0000 
  13296 H(5)       51.2796   91.7161   13.0039 H         1 UNK         0.0000 
  13297 H(6)       51.5154   90.2412   19.1403 H         1 UNK         0.0000 
  13298 H(7)       49.9613   90.7249   21.7490 H         1 UNK         0.0000 
  13299 H(8)       51.0363   89.5433   21.1093 H         1 UNK         0.0000 
  13300 H(9)       49.3590   89.1774   21.4570 H         1 UNK         0.0000 
  13301 O(1)       54.7596   80.4552   16.5945 O.3       1 UNK         0.0000 
  13302 O(2)       56.7574   86.6239   16.7103 O.2       1 UNK         0.0000 
  13303 N(1)       54.5763   86.0195   16.5226 N.am      1 UNK         0.0000 
  13304 C(1)       54.6757   84.6111   16.5738 C.ar      1 UNK         0.0000 
  13305 C(2)       55.7579   83.9229   17.1221 C.ar      1 UNK         0.0000 
  13306 C(3)       55.7649   82.5311   17.1257 C.ar      1 UNK         0.0000 
  13307 C(4)       54.6949   81.8165   16.5933 C.ar      1 UNK         0.0000 
  13308 C(5)       53.5993   82.5044   16.0731 C.ar      1 UNK         0.0000 
  13309 C(6)       53.5940   83.8919   16.0644 C.ar      1 UNK         0.0000 
  13310 C(7)       55.5671   86.9248   16.5694 C.2       1 UNK         0.0000 
  13311 C(8)       55.1262   88.3590   16.4484 C.3       1 UNK         0.0000 
  13312 H(1)       56.5984   84.4654   17.5368 H         1 UNK         0.0000 
  13313 H(2)       56.6157   82.0146   17.5527 H         1 UNK         0.0000 
  13314 H(3)       52.7561   81.9551   15.6728 H         1 UNK         0.0000 
  13315 H(4)       52.7434   84.4254   15.6585 H         1 UNK         0.0000 
  13316 H(5)       53.8862   80.0725   16.4465 H         1 UNK         0.0000 
  13317 H(6)       53.6503   86.3830   16.3534 H         1 UNK         0.0000 
  13318 H(7)       55.2045   88.8221   17.3976 H         1 UNK         0.0000 
  13319 H(8)       54.1294   88.4571   16.1044 H         1 UNK         0.0000 
  13320 H(9)       55.8067   88.8766   15.8236 H         1 UNK         0.0000 
  13321 O(1)       50.4257   77.9705   22.6641 O.3       1 UNK         0.0000 
  13322 O(2)       52.4235   79.2106   16.6201 O.2       1 UNK         0.0000 
  13323 N(1)       50.2424   79.2612   17.2510 N.am      1 UNK         0.0000 
  13324 C(1)       50.3418   78.9023   18.6139 C.ar      1 UNK         0.0000 
  13325 C(2)       51.4240   78.2164   19.1651 C.ar      1 UNK         0.0000 
  13326 C(3)       51.4310   77.9077   20.5223 C.ar      1 UNK         0.0000 
  13327 C(4)       50.3610   78.2703   21.3362 C.ar      1 UNK         0.0000 
  13328 C(5)       49.2654   78.9287   20.7791 C.ar      1 UNK         0.0000 
  13329 C(6)       49.2601   79.2416   19.4273 C.ar      1 UNK         0.0000 
  13330 C(7)       51.2332   79.4141   16.3575 C.2       1 UNK         0.0000 
  13331 C(8)       50.7923   79.8467   14.9848 C.3       1 UNK         0.0000 
  13332 H(1)       52.2645   77.9308   18.5448 H         1 UNK         0.0000 
  13333 H(2)       52.2818   77.3778   20.9325 H         1 UNK         0.0000 
  13334 H(3)       48.4222   79.1988   21.4028 H         1 UNK         0.0000 
  13335 H(4)       48.4095   79.7547   18.9958 H         1 UNK         0.0000 
  13336 H(5)       49.5523   78.0310   23.0699 H         1 UNK         0.0000 
  13337 H(6)       49.3164   79.5060   16.9335 H         1 UNK         0.0000 
  13338 H(7)       50.8706   79.0222   14.3248 H         1 UNK         0.0000 
  13339 H(8)       49.7955   80.2038   14.9645 H         1 UNK         0.0000 
  13340 H(9)       51.4728   80.5698   14.6168 H         1 UNK         0.0000 
  13341 O(1)       53.1492   89.2920   19.4793 O.3       1 UNK         0.0000 
  13342 O(2)       51.1514   83.1232   19.3635 O.2       1 UNK         0.0000 
  13343 N(1)       53.3326   83.7276   19.5512 N.am      1 UNK         0.0000 
  13344 C(1)       53.2331   85.1361   19.5000 C.ar      1 UNK         0.0000 
  13345 C(2)       52.1509   85.8243   18.9517 C.ar      1 UNK         0.0000 
  13346 C(3)       52.1439   87.2161   18.9482 C.ar      1 UNK         0.0000 
  13347 C(4)       53.2139   87.9307   19.4805 C.ar      1 UNK         0.0000 
  13348 C(5)       54.3095   87.2428   20.0007 C.ar      1 UNK         0.0000 
  13349 C(6)       54.3149   85.8552   20.0094 C.ar      1 UNK         0.0000 
  13350 C(7)       52.3418   82.8223   19.5044 C.2       1 UNK         0.0000 
  13351 C(8)       52.7826   81.3882   19.6254 C.3       1 UNK         0.0000 
  13352 H(1)       51.3104   85.2818   18.5370 H         1 UNK         0.0000 
  13353 H(2)       51.2931   87.7326   18.5211 H         1 UNK         0.0000 
  13354 H(3)       55.1527   87.7920   20.4010 H         1 UNK         0.0000 
  13355 H(4)       55.1655   85.3217   20.4154 H         1 UNK         0.0000 
  13356 H(5)       54.0227   89.6746   19.6273 H         1 UNK         0.0000 
  13357 H(6)       54.2585   83.3642   19.7204 H         1 UNK         0.0000 
  13358 H(7)       52.7044   80.9251   18.6762 H         1 UNK         0.0000 
  13359 H(8)       53.7794   81.2901   19.9694 H         1 UNK         0.0000 
  13360 H(9)       52.1022   80.8705   20.2502 H         1 UNK         0.0000 
  13361 O(1)       48.8153   82.8253   20.5721 O.3       1 UNK         0.0000 
  13362 O(2)       46.8175   81.5852   26.6161 O.2       1 UNK         0.0000 
  13363 N(1)       48.9987   81.5346   25.9852 N.am      1 UNK         0.0000 
  13364 C(1)       48.8992   81.8935   24.6223 C.ar      1 UNK         0.0000 
  13365 C(2)       47.8171   82.5794   24.0711 C.ar      1 UNK         0.0000 
  13366 C(3)       47.8100   82.8881   22.7140 C.ar      1 UNK         0.0000 
  13367 C(4)       48.8800   82.5255   21.9000 C.ar      1 UNK         0.0000 
  13368 C(5)       49.9757   81.8671   22.4571 C.ar      1 UNK         0.0000 
  13369 C(6)       49.9810   81.5542   23.8089 C.ar      1 UNK         0.0000 
  13370 C(7)       48.0079   81.3817   26.8787 C.2       1 UNK         0.0000 
  13371 C(8)       48.4487   80.9491   28.2514 C.3       1 UNK         0.0000 
  13372 H(1)       46.9765   82.8650   24.6914 H         1 UNK         0.0000 
  13373 H(2)       46.9592   83.4180   22.3037 H         1 UNK         0.0000 
  13374 H(3)       50.8188   81.5970   21.8334 H         1 UNK         0.0000 
  13375 H(4)       50.8316   81.0412   24.2404 H         1 UNK         0.0000 
  13376 H(5)       49.6888   82.7648   20.1663 H         1 UNK         0.0000 
  13377 H(6)       49.9246   81.2898   26.3027 H         1 UNK         0.0000 
  13378 H(7)       48.3705   81.7736   28.9114 H         1 UNK         0.0000 
  13379 H(8)       49.4455   80.5920   28.2717 H         1 UNK         0.0000 
  13380 H(9)       47.7683   80.2260   28.6194 H         1 UNK         0.0000 
  13381 O(1)       47.6826   86.1861   23.7569 O.3       1 UNK         0.0000 
  13382 O(2)       49.6804   92.3549   23.8727 O.2       1 UNK         0.0000 
  13383 N(1)       47.4993   91.7505   23.6850 N.am      1 UNK         0.0000 
  13384 C(1)       47.5987   90.3421   23.7362 C.ar      1 UNK         0.0000 
  13385 C(2)       48.6809   89.6538   24.2845 C.ar      1 UNK         0.0000 
  13386 C(3)       48.6879   88.2620   24.2881 C.ar      1 UNK         0.0000 
  13387 C(4)       47.6179   87.5474   23.7557 C.ar      1 UNK         0.0000 
  13388 C(5)       46.5223   88.2353   23.2355 C.ar      1 UNK         0.0000 
  13389 C(6)       46.5170   89.6229   23.2268 C.ar      1 UNK         0.0000 
  13390 C(7)       48.4901   92.6558   23.7318 C.2       1 UNK         0.0000 
  13391 C(8)       48.0492   94.0899   23.6108 C.3       1 UNK         0.0000 
  13392 H(1)       49.5214   90.1964   24.6992 H         1 UNK         0.0000 
  13393 H(2)       49.5387   87.7456   24.7151 H         1 UNK         0.0000 
  13394 H(3)       45.6791   87.6861   22.8352 H         1 UNK         0.0000 
  13395 H(4)       45.6664   90.1564   22.8209 H         1 UNK         0.0000 
  13396 H(5)       46.8092   85.8035   23.6089 H         1 UNK         0.0000 
  13397 H(6)       46.5733   92.1140   23.5158 H         1 UNK         0.0000 
  13398 H(7)       48.1275   94.5530   24.5600 H         1 UNK         0.0000 
  13399 H(8)       47.0524   94.1881   23.2668 H         1 UNK         0.0000 
  13400 H(9)       48.7297   94.6076   22.9860 H         1 UNK         0.0000 
  13401 O(1)       52.0165   81.1909    8.3393 O.3       1 UNK         0.0000 
  13402 O(2)       54.0143   82.4310    2.2953 O.2       1 UNK         0.0000 
  13403 N(1)       51.8332   82.4816    2.9262 N.am      1 UNK         0.0000 
  13404 C(1)       51.9326   82.1227    4.2891 C.ar      1 UNK         0.0000 
  13405 C(2)       53.0148   81.4368    4.8403 C.ar      1 UNK         0.0000 
  13406 C(3)       53.0218   81.1281    6.1975 C.ar      1 UNK         0.0000 
  13407 C(4)       51.9518   81.4907    7.0114 C.ar      1 UNK         0.0000 
  13408 C(5)       50.8562   82.1491    6.4543 C.ar      1 UNK         0.0000 
  13409 C(6)       50.8509   82.4620    5.1025 C.ar      1 UNK         0.0000 
  13410 C(7)       52.8240   82.6345    2.0327 C.2       1 UNK         0.0000 
  13411 C(8)       52.3831   83.0671    0.6600 C.3       1 UNK         0.0000 
  13412 H(1)       53.8553   81.1512    4.2200 H         1 UNK         0.0000 
  13413 H(2)       53.8726   80.5982    6.6077 H         1 UNK         0.0000 
  13414 H(3)       50.0130   82.4192    7.0780 H         1 UNK         0.0000 
  13415 H(4)       50.0003   82.9751    4.6710 H         1 UNK         0.0000 
  13416 H(5)       51.1431   81.2514    8.7451 H         1 UNK         0.0000 
  13417 H(6)       50.9072   82.7264    2.6087 H         1 UNK         0.0000 
  13418 H(7)       52.4614   82.2426    0.0000 H         1 UNK         0.0000 
  13419 H(8)       51.3863   83.4242    0.6397 H         1 UNK         0.0000 
  13420 H(9)       53.0636   83.7902    0.2920 H         1 UNK         0.0000 
  13421 O(1)       54.7400   92.5124    5.1545 O.3       1 UNK         0.0000 
  13422 O(2)       52.7422   86.3436    5.0387 O.2       1 UNK         0.0000 
  13423 N(1)       54.9233   86.9480    5.2264 N.am      1 UNK         0.0000 
  13424 C(1)       54.8239   88.3565    5.1752 C.ar      1 UNK         0.0000 
  13425 C(2)       53.7417   89.0447    4.6269 C.ar      1 UNK         0.0000 
  13426 C(3)       53.7347   90.4365    4.6234 C.ar      1 UNK         0.0000 
  13427 C(4)       54.8047   91.1511    5.1557 C.ar      1 UNK         0.0000 
  13428 C(5)       55.9003   90.4632    5.6759 C.ar      1 UNK         0.0000 
  13429 C(6)       55.9056   89.0756    5.6846 C.ar      1 UNK         0.0000 
  13430 C(7)       53.9326   86.0427    5.1796 C.2       1 UNK         0.0000 
  13431 C(8)       54.3734   84.6086    5.3006 C.3       1 UNK         0.0000 
  13432 H(1)       52.9012   88.5022    4.2122 H         1 UNK         0.0000 
  13433 H(2)       52.8839   90.9530    4.1963 H         1 UNK         0.0000 
  13434 H(3)       56.7435   91.0124    6.0762 H         1 UNK         0.0000 
  13435 H(4)       56.7563   88.5421    6.0906 H         1 UNK         0.0000 
  13436 H(5)       55.6134   92.8950    5.3025 H         1 UNK         0.0000 
  13437 H(6)       55.8493   86.5846    5.3956 H         1 UNK         0.0000 
  13438 H(7)       54.2952   84.1455    4.3514 H         1 UNK         0.0000 
  13439 H(8)       55.3702   84.5105    5.6446 H         1 UNK         0.0000 
  13440 H(9)       53.6929   84.0909    5.9254 H         1 UNK         0.0000 
  13441 O(1)       51.9969  100.7280    6.2473 O.3       1 UNK         0.0000 
  13442 O(2)       49.9991   99.4879   12.2913 O.2       1 UNK         0.0000 
  13443 N(1)       52.1802   99.4373   11.6604 N.am      1 UNK         0.0000 
  13444 C(1)       52.0808   99.7962   10.2975 C.ar      1 UNK         0.0000 
  13445 C(2)       50.9986  100.4821    9.7463 C.ar      1 UNK         0.0000 
  13446 C(3)       50.9916  100.7909    8.3892 C.ar      1 UNK         0.0000 
  13447 C(4)       52.0616  100.4282    7.5752 C.ar      1 UNK         0.0000 
  13448 C(5)       53.1572   99.7698    8.1323 C.ar      1 UNK         0.0000 
  13449 C(6)       53.1625   99.4569    9.4841 C.ar      1 UNK         0.0000 
  13450 C(7)       51.1895   99.2845   12.5539 C.2       1 UNK         0.0000 
  13451 C(8)       51.6303   98.8518   13.9266 C.3       1 UNK         0.0000 
  13452 H(1)       50.1581  100.7678   10.3666 H         1 UNK         0.0000 
  13453 H(2)       50.1408  101.3208    7.9789 H         1 UNK         0.0000 
  13454 H(3)       54.0004   99.4997    7.5086 H         1 UNK         0.0000 
  13455 H(4)       54.0131   98.9439    9.9156 H         1 UNK         0.0000 
  13456 H(5)       52.8703  100.6675    5.8415 H         1 UNK         0.0000 
  13457 H(6)       53.1062   99.1926   11.9779 H         1 UNK         0.0000 
  13458 H(7)       51.5520   99.6763   14.5866 H         1 UNK         0.0000 
  13459 H(8)       52.6271   98.4947   13.9469 H         1 UNK         0.0000 
  13460 H(9)       50.9498   98.1287   14.2946 H         1 UNK         0.0000 
  13461 O(1)       56.3504   89.4065    9.4321 O.3       1 UNK         0.0000 
  13462 O(2)       58.3482   95.5753    9.5479 O.2       1 UNK         0.0000 
  13463 N(1)       56.1671   94.9709    9.3602 N.am      1 UNK         0.0000 
  13464 C(1)       56.2665   93.5625    9.4114 C.ar      1 UNK         0.0000 
  13465 C(2)       57.3487   92.8742    9.9597 C.ar      1 UNK         0.0000 
  13466 C(3)       57.3557   91.4824    9.9633 C.ar      1 UNK         0.0000 
  13467 C(4)       56.2857   90.7678    9.4309 C.ar      1 UNK         0.0000 
  13468 C(5)       55.1901   91.4557    8.9107 C.ar      1 UNK         0.0000 
  13469 C(6)       55.1848   92.8433    8.9020 C.ar      1 UNK         0.0000 
  13470 C(7)       57.1578   95.8762    9.4070 C.2       1 UNK         0.0000 
  13471 C(8)       56.7170   97.3103    9.2860 C.3       1 UNK         0.0000 
  13472 H(1)       58.1892   93.4168   10.3744 H         1 UNK         0.0000 
  13473 H(2)       58.2065   90.9660   10.3903 H         1 UNK         0.0000 
  13474 H(3)       54.3469   90.9065    8.5104 H         1 UNK         0.0000 
  13475 H(4)       54.3342   93.3768    8.4961 H         1 UNK         0.0000 
  13476 H(5)       55.4770   89.0239    9.2841 H         1 UNK         0.0000 
  13477 H(6)       55.2411   95.3344    9.1910 H         1 UNK         0.0000 
  13478 H(7)       56.7952   97.7734   10.2352 H         1 UNK         0.0000 
  13479 H(8)       55.7202   97.4085    8.9420 H         1 UNK         0.0000 
  13480 H(9)       57.3975   97.8280    8.6612 H         1 UNK         0.0000 
  13481 O(1)       46.5303  101.6042   15.5017 O.3       1 UNK         0.0000 
  13482 O(2)       48.5281  102.8443    9.4577 O.2       1 UNK         0.0000 
  13483 N(1)       46.3470  102.8949   10.0886 N.am      1 UNK         0.0000 
  13484 C(1)       46.4464  102.5360   11.4515 C.ar      1 UNK         0.0000 
  13485 C(2)       47.5286  101.8501   12.0027 C.ar      1 UNK         0.0000 
  13486 C(3)       47.5356  101.5414   13.3599 C.ar      1 UNK         0.0000 
  13487 C(4)       46.4656  101.9040   14.1738 C.ar      1 UNK         0.0000 
  13488 C(5)       45.3700  102.5624   13.6167 C.ar      1 UNK         0.0000 
  13489 C(6)       45.3647  102.8753   12.2649 C.ar      1 UNK         0.0000 
  13490 C(7)       47.3377  103.0478    9.1951 C.2       1 UNK         0.0000 
  13491 C(8)       46.8969  103.4804    7.8224 C.3       1 UNK         0.0000 
  13492 H(1)       48.3691  101.5645   11.3824 H         1 UNK         0.0000 
  13493 H(2)       48.3864  101.0115   13.7701 H         1 UNK         0.0000 
  13494 H(3)       44.5268  102.8325   14.2404 H         1 UNK         0.0000 
  13495 H(4)       44.5140  103.3883   11.8334 H         1 UNK         0.0000 
  13496 H(5)       45.6568  101.6647   15.9075 H         1 UNK         0.0000 
  13497 H(6)       45.4210  103.1397    9.7711 H         1 UNK         0.0000 
  13498 H(7)       46.9751  102.6559    7.1624 H         1 UNK         0.0000 
  13499 H(8)       45.9001  103.8375    7.8021 H         1 UNK         0.0000 
  13500 H(9)       47.5774  104.2035    7.4544 H         1 UNK         0.0000 
  13501 O(1)       47.6630   98.2434   12.3169 O.3       1 UNK         0.0000 
  13502 O(2)       45.6652   92.0746   12.2011 O.2       1 UNK         0.0000 
  13503 N(1)       47.8463   92.6790   12.3888 N.am      1 UNK         0.0000 
  13504 C(1)       47.7469   94.0874   12.3376 C.ar      1 UNK         0.0000 
  13505 C(2)       46.6647   94.7757   11.7893 C.ar      1 UNK         0.0000 
  13506 C(3)       46.6577   96.1675   11.7858 C.ar      1 UNK         0.0000 
  13507 C(4)       47.7277   96.8821   12.3181 C.ar      1 UNK         0.0000 
  13508 C(5)       48.8233   96.1941   12.8383 C.ar      1 UNK         0.0000 
  13509 C(6)       48.8286   94.8066   12.8470 C.ar      1 UNK         0.0000 
  13510 C(7)       46.8556   91.7737   12.3420 C.2       1 UNK         0.0000 
  13511 C(8)       47.2964   90.3396   12.4630 C.3       1 UNK         0.0000 
  13512 H(1)       45.8242   94.2331   11.3746 H         1 UNK         0.0000 
  13513 H(2)       45.8069   96.6839   11.3587 H         1 UNK         0.0000 
  13514 H(3)       49.6665   96.7434   13.2386 H         1 UNK         0.0000 
  13515 H(4)       49.6793   94.2731   13.2530 H         1 UNK         0.0000 
  13516 H(5)       48.5364   98.6260   12.4649 H         1 UNK         0.0000 
  13517 H(6)       48.7723   92.3155   12.5580 H         1 UNK         0.0000 
  13518 H(7)       47.2182   89.8765   11.5138 H         1 UNK         0.0000 
  13519 H(8)       48.2932   90.2414   12.8070 H         1 UNK         0.0000 
  13520 H(9)       46.6159   89.8219   13.0878 H         1 UNK         0.0000 
  13521 O(1)       51.9969  106.4590   13.4097 O.3       1 UNK         0.0000 
  13522 O(2)       49.9991  105.2189   19.4537 O.2       1 UNK         0.0000 
  13523 N(1)       52.1802  105.1683   18.8228 N.am      1 UNK         0.0000 
  13524 C(1)       52.0808  105.5272   17.4599 C.ar      1 UNK         0.0000 
  13525 C(2)       50.9986  106.2131   16.9087 C.ar      1 UNK         0.0000 
  13526 C(3)       50.9916  106.5218   15.5516 C.ar      1 UNK         0.0000 
  13527 C(4)       52.0616  106.1592   14.7376 C.ar      1 UNK         0.0000 
  13528 C(5)       53.1572  105.5008   15.2947 C.ar      1 UNK         0.0000 
  13529 C(6)       53.1625  105.1879   16.6465 C.ar      1 UNK         0.0000 
  13530 C(7)       51.1895  105.0154   19.7163 C.2       1 UNK         0.0000 
  13531 C(8)       51.6303  104.5828   21.0890 C.3       1 UNK         0.0000 
  13532 H(1)       50.1581  106.4987   17.5290 H         1 UNK         0.0000 
  13533 H(2)       50.1408  107.0517   15.1413 H         1 UNK         0.0000 
  13534 H(3)       54.0004  105.2307   14.6710 H         1 UNK         0.0000 
  13535 H(4)       54.0131  104.6748   17.0780 H         1 UNK         0.0000 
  13536 H(5)       52.8703  106.3985   13.0039 H         1 UNK         0.0000 
  13537 H(6)       53.1062  104.9235   19.1403 H         1 UNK         0.0000 
  13538 H(7)       51.5520  105.4073   21.7490 H         1 UNK         0.0000 
  13539 H(8)       52.6271  104.2257   21.1093 H         1 UNK         0.0000 
  13540 H(9)       50.9498  103.8597   21.4570 H         1 UNK         0.0000 
  13541 O(1)       56.3504   95.1375   16.5945 O.3       1 UNK         0.0000 
  13542 O(2)       58.3482  101.3063   16.7103 O.2       1 UNK         0.0000 
  13543 N(1)       56.1671  100.7019   16.5226 N.am      1 UNK         0.0000 
  13544 C(1)       56.2665   99.2934   16.5738 C.ar      1 UNK         0.0000 
  13545 C(2)       57.3487   98.6052   17.1221 C.ar      1 UNK         0.0000 
  13546 C(3)       57.3557   97.2134   17.1257 C.ar      1 UNK         0.0000 
  13547 C(4)       56.2857   96.4988   16.5933 C.ar      1 UNK         0.0000 
  13548 C(5)       55.1901   97.1867   16.0731 C.ar      1 UNK         0.0000 
  13549 C(6)       55.1848   98.5743   16.0644 C.ar      1 UNK         0.0000 
  13550 C(7)       57.1578  101.6072   16.5694 C.2       1 UNK         0.0000 
  13551 C(8)       56.7170  103.0413   16.4484 C.3       1 UNK         0.0000 
  13552 H(1)       58.1892   99.1477   17.5368 H         1 UNK         0.0000 
  13553 H(2)       58.2065   96.6969   17.5527 H         1 UNK         0.0000 
  13554 H(3)       54.3469   96.6375   15.6728 H         1 UNK         0.0000 
  13555 H(4)       54.3342   99.1078   15.6585 H         1 UNK         0.0000 
  13556 H(5)       55.4770   94.7549   16.4465 H         1 UNK         0.0000 
  13557 H(6)       55.2411  101.0653   16.3534 H         1 UNK         0.0000 
  13558 H(7)       56.7952  103.5044   17.3976 H         1 UNK         0.0000 
  13559 H(8)       55.7202  103.1394   16.1044 H         1 UNK         0.0000 
  13560 H(9)       57.3975  103.5590   15.8236 H         1 UNK         0.0000 
  13561 O(1)       52.0165   92.6529   22.6641 O.3       1 UNK         0.0000 
  13562 O(2)       54.0143   93.8929   16.6201 O.2       1 UNK         0.0000 
  13563 N(1)       51.8332   93.9436   17.2510 N.am      1 UNK         0.0000 
  13564 C(1)       51.9326   93.5847   18.6139 C.ar      1 UNK         0.0000 
  13565 C(2)       53.0148   92.8988   19.1651 C.ar      1 UNK         0.0000 
  13566 C(3)       53.0218   92.5900   20.5223 C.ar      1 UNK         0.0000 
  13567 C(4)       51.9518   92.9527   21.3362 C.ar      1 UNK         0.0000 
  13568 C(5)       50.8562   93.6110   20.7791 C.ar      1 UNK         0.0000 
  13569 C(6)       50.8509   93.9239   19.4273 C.ar      1 UNK         0.0000 
  13570 C(7)       52.8240   94.0964   16.3575 C.2       1 UNK         0.0000 
  13571 C(8)       52.3831   94.5290   14.9848 C.3       1 UNK         0.0000 
  13572 H(1)       53.8553   92.6131   18.5448 H         1 UNK         0.0000 
  13573 H(2)       53.8726   92.0601   20.9325 H         1 UNK         0.0000 
  13574 H(3)       50.0130   93.8811   21.4028 H         1 UNK         0.0000 
  13575 H(4)       50.0003   94.4370   18.9958 H         1 UNK         0.0000 
  13576 H(5)       51.1431   92.7134   23.0699 H         1 UNK         0.0000 
  13577 H(6)       50.9072   94.1883   16.9335 H         1 UNK         0.0000 
  13578 H(7)       52.4614   93.7046   14.3248 H         1 UNK         0.0000 
  13579 H(8)       51.3863   94.8862   14.9645 H         1 UNK         0.0000 
  13580 H(9)       53.0636   95.2521   14.6168 H         1 UNK         0.0000 
  13581 O(1)       54.7400  103.9743   19.4793 O.3       1 UNK         0.0000 
  13582 O(2)       52.7422   97.8056   19.3635 O.2       1 UNK         0.0000 
  13583 N(1)       54.9233   98.4100   19.5512 N.am      1 UNK         0.0000 
  13584 C(1)       54.8239   99.8184   19.5000 C.ar      1 UNK         0.0000 
  13585 C(2)       53.7417  100.5066   18.9517 C.ar      1 UNK         0.0000 
  13586 C(3)       53.7347  101.8984   18.9482 C.ar      1 UNK         0.0000 
  13587 C(4)       54.8047  102.6130   19.4805 C.ar      1 UNK         0.0000 
  13588 C(5)       55.9003  101.9251   20.0007 C.ar      1 UNK         0.0000 
  13589 C(6)       55.9056  100.5376   20.0094 C.ar      1 UNK         0.0000 
  13590 C(7)       53.9326   97.5047   19.5044 C.2       1 UNK         0.0000 
  13591 C(8)       54.3734   96.0705   19.6254 C.3       1 UNK         0.0000 
  13592 H(1)       52.9012   99.9641   18.5370 H         1 UNK         0.0000 
  13593 H(2)       52.8839  102.4149   18.5211 H         1 UNK         0.0000 
  13594 H(3)       56.7435  102.4744   20.4010 H         1 UNK         0.0000 
  13595 H(4)       56.7563  100.0041   20.4154 H         1 UNK         0.0000 
  13596 H(5)       55.6134  104.3570   19.6273 H         1 UNK         0.0000 
  13597 H(6)       55.8493   98.0465   19.7204 H         1 UNK         0.0000 
  13598 H(7)       54.2952   95.6074   18.6762 H         1 UNK         0.0000 
  13599 H(8)       55.3702   95.9724   19.9694 H         1 UNK         0.0000 
  13600 H(9)       53.6929   95.5529   20.2502 H         1 UNK         0.0000 
  13601 O(1)       50.4061   97.5076   20.5721 O.3       1 UNK         0.0000 
  13602 O(2)       48.4083   96.2675   26.6161 O.2       1 UNK         0.0000 
  13603 N(1)       50.5894   96.2169   25.9852 N.am      1 UNK         0.0000 
  13604 C(1)       50.4900   96.5758   24.6223 C.ar      1 UNK         0.0000 
  13605 C(2)       49.4078   97.2617   24.0711 C.ar      1 UNK         0.0000 
  13606 C(3)       49.4008   97.5705   22.7140 C.ar      1 UNK         0.0000 
  13607 C(4)       50.4708   97.2078   21.9000 C.ar      1 UNK         0.0000 
  13608 C(5)       51.5664   96.5494   22.4571 C.ar      1 UNK         0.0000 
  13609 C(6)       51.5717   96.2365   23.8089 C.ar      1 UNK         0.0000 
  13610 C(7)       49.5987   96.0641   26.8787 C.2       1 UNK         0.0000 
  13611 C(8)       50.0395   95.6314   28.2514 C.3       1 UNK         0.0000 
  13612 H(1)       48.5673   97.5474   24.6914 H         1 UNK         0.0000 
  13613 H(2)       48.5500   98.1004   22.3037 H         1 UNK         0.0000 
  13614 H(3)       52.4096   96.2793   21.8334 H         1 UNK         0.0000 
  13615 H(4)       52.4224   95.7235   24.2404 H         1 UNK         0.0000 
  13616 H(5)       51.2796   97.4471   20.1663 H         1 UNK         0.0000 
  13617 H(6)       51.5154   95.9722   26.3027 H         1 UNK         0.0000 
  13618 H(7)       49.9613   96.4559   28.9114 H         1 UNK         0.0000 
  13619 H(8)       51.0363   95.2743   28.2717 H         1 UNK         0.0000 
  13620 H(9)       49.3590   94.9083   28.6194 H         1 UNK         0.0000 
  13621 O(1)       49.2734  100.8684   23.7569 O.3       1 UNK         0.0000 
  13622 O(2)       51.2712  107.0372   23.8727 O.2       1 UNK         0.0000 
  13623 N(1)       49.0901  106.4328   23.6850 N.am      1 UNK         0.0000 
  13624 C(1)       49.1895  105.0244   23.7362 C.ar      1 UNK         0.0000 
  13625 C(2)       50.2717  104.3362   24.2845 C.ar      1 UNK         0.0000 
  13626 C(3)       50.2787  102.9444   24.2881 C.ar      1 UNK         0.0000 
  13627 C(4)       49.2087  102.2298   23.7557 C.ar      1 UNK         0.0000 
  13628 C(5)       48.1131  102.9177   23.2355 C.ar      1 UNK         0.0000 
  13629 C(6)       48.1078  104.3052   23.2268 C.ar      1 UNK         0.0000 
  13630 C(7)       50.0808  107.3381   23.7318 C.2       1 UNK         0.0000 
  13631 C(8)       49.6400  108.7723   23.6108 C.3       1 UNK         0.0000 
  13632 H(1)       51.1122  104.8787   24.6992 H         1 UNK         0.0000 
  13633 H(2)       51.1295  102.4279   24.7151 H         1 UNK         0.0000 
  13634 H(3)       47.2699  102.3684   22.8352 H         1 UNK         0.0000 
  13635 H(4)       47.2572  104.8387   22.8209 H         1 UNK         0.0000 
  13636 H(5)       48.4000  100.4858   23.6089 H         1 UNK         0.0000 
  13637 H(6)       48.1641  106.7963   23.5158 H         1 UNK         0.0000 
  13638 H(7)       49.7182  109.2354   24.5600 H         1 UNK         0.0000 
  13639 H(8)       48.6432  108.8704   23.2668 H         1 UNK         0.0000 
  13640 H(9)       50.3205  109.2899   22.9860 H         1 UNK         0.0000 
  13641 O(1)       53.6073   95.8732    8.3393 O.3       1 UNK         0.0000 
  13642 O(2)       55.6051   97.1133    2.2953 O.2       1 UNK         0.0000 
  13643 N(1)       53.4240   97.1640    2.9262 N.am      1 UNK         0.0000 
  13644 C(1)       53.5234   96.8050    4.2891 C.ar      1 UNK         0.0000 
  13645 C(2)       54.6056   96.1192    4.8403 C.ar      1 UNK         0.0000 
  13646 C(3)       54.6126   95.8104    6.1975 C.ar      1 UNK         0.0000 
  13647 C(4)       53.5426   96.1731    7.0114 C.ar      1 UNK         0.0000 
  13648 C(5)       52.4470   96.8314    6.4543 C.ar      1 UNK         0.0000 
  13649 C(6)       52.4417   97.1443    5.1025 C.ar      1 UNK         0.0000 
  13650 C(7)       54.4147   97.3168    2.0327 C.2       1 UNK         0.0000 
  13651 C(8)       53.9739   97.7494    0.6600 C.3       1 UNK         0.0000 
  13652 H(1)       55.4461   95.8335    4.2200 H         1 UNK         0.0000 
  13653 H(2)       55.4634   95.2805    6.6077 H         1 UNK         0.0000 
  13654 H(3)       51.6038   97.1015    7.0780 H         1 UNK         0.0000 
  13655 H(4)       51.5910   97.6574    4.6710 H         1 UNK         0.0000 
  13656 H(5)       52.7338   95.9338    8.7451 H         1 UNK         0.0000 
  13657 H(6)       52.4980   97.4087    2.6087 H         1 UNK         0.0000 
  13658 H(7)       54.0521   96.9250    0.0000 H         1 UNK         0.0000 
  13659 H(8)       52.9771   98.1066    0.6397 H         1 UNK         0.0000 
  13660 H(9)       54.6544   98.4725    0.2920 H         1 UNK         0.0000 
  13661 O(1)       56.3308  107.1947    5.1545 O.3       1 UNK         0.0000 
  13662 O(2)       54.3330  101.0260    5.0387 O.2       1 UNK         0.0000 
  13663 N(1)       56.5141  101.6304    5.2264 N.am      1 UNK         0.0000 
  13664 C(1)       56.4147  103.0388    5.1752 C.ar      1 UNK         0.0000 
  13665 C(2)       55.3325  103.7270    4.6269 C.ar      1 UNK         0.0000 
  13666 C(3)       55.3255  105.1188    4.6234 C.ar      1 UNK         0.0000 
  13667 C(4)       56.3955  105.8334    5.1557 C.ar      1 UNK         0.0000 
  13668 C(5)       57.4911  105.1455    5.6759 C.ar      1 UNK         0.0000 
  13669 C(6)       57.4964  103.7580    5.6846 C.ar      1 UNK         0.0000 
  13670 C(7)       55.5233  100.7251    5.1796 C.2       1 UNK         0.0000 
  13671 C(8)       55.9642   99.2909    5.3006 C.3       1 UNK         0.0000 
  13672 H(1)       54.4920  103.1845    4.2122 H         1 UNK         0.0000 
  13673 H(2)       54.4747  105.6353    4.1963 H         1 UNK         0.0000 
  13674 H(3)       58.3343  105.6948    6.0762 H         1 UNK         0.0000 
  13675 H(4)       58.3470  103.2245    6.0906 H         1 UNK         0.0000 
  13676 H(5)       57.2042  107.5773    5.3025 H         1 UNK         0.0000 
  13677 H(6)       57.4401  101.2669    5.3956 H         1 UNK         0.0000 
  13678 H(7)       55.8859   98.8278    4.3514 H         1 UNK         0.0000 
  13679 H(8)       56.9610   99.1928    5.6446 H         1 UNK         0.0000 
  13680 H(9)       55.2837   98.7733    5.9254 H         1 UNK         0.0000 
  13681 O(1)       53.5877  115.4103    6.2473 O.3       1 UNK         0.0000 
  13682 O(2)       51.5899  114.1703   12.2913 O.2       1 UNK         0.0000 
  13683 N(1)       53.7710  114.1196   11.6604 N.am      1 UNK         0.0000 
  13684 C(1)       53.6716  114.4785   10.2975 C.ar      1 UNK         0.0000 
  13685 C(2)       52.5894  115.1644    9.7463 C.ar      1 UNK         0.0000 
  13686 C(3)       52.5824  115.4732    8.3892 C.ar      1 UNK         0.0000 
  13687 C(4)       53.6524  115.1105    7.5752 C.ar      1 UNK         0.0000 
  13688 C(5)       54.7480  114.4521    8.1323 C.ar      1 UNK         0.0000 
  13689 C(6)       54.7533  114.1393    9.4841 C.ar      1 UNK         0.0000 
  13690 C(7)       52.7802  113.9668   12.5539 C.2       1 UNK         0.0000 
  13691 C(8)       53.2211  113.5342   13.9266 C.3       1 UNK         0.0000 
  13692 H(1)       51.7489  115.4501   10.3666 H         1 UNK         0.0000 
  13693 H(2)       51.7316  116.0031    7.9789 H         1 UNK         0.0000 
  13694 H(3)       55.5912  114.1821    7.5086 H         1 UNK         0.0000 
  13695 H(4)       55.6039  113.6262    9.9156 H         1 UNK         0.0000 
  13696 H(5)       54.4611  115.3498    5.8415 H         1 UNK         0.0000 
  13697 H(6)       54.6970  113.8749   11.9779 H         1 UNK         0.0000 
  13698 H(7)       53.1428  114.3586   14.5866 H         1 UNK         0.0000 
  13699 H(8)       54.2179  113.1770   13.9469 H         1 UNK         0.0000 
  13700 H(9)       52.5406  112.8111   14.2946 H         1 UNK         0.0000 
  13701 O(1)       57.9412  104.0888    9.4321 O.3       1 UNK         0.0000 
  13702 O(2)       59.9390  110.2576    9.5479 O.2       1 UNK         0.0000 
  13703 N(1)       57.7578  109.6532    9.3602 N.am      1 UNK         0.0000 
  13704 C(1)       57.8573  108.2448    9.4114 C.ar      1 UNK         0.0000 
  13705 C(2)       58.9395  107.5566    9.9597 C.ar      1 UNK         0.0000 
  13706 C(3)       58.9465  106.1648    9.9633 C.ar      1 UNK         0.0000 
  13707 C(4)       57.8765  105.4502    9.4309 C.ar      1 UNK         0.0000 
  13708 C(5)       56.7809  106.1381    8.9107 C.ar      1 UNK         0.0000 
  13709 C(6)       56.7756  107.5256    8.9020 C.ar      1 UNK         0.0000 
  13710 C(7)       58.7486  110.5585    9.4070 C.2       1 UNK         0.0000 
  13711 C(8)       58.3078  111.9927    9.2860 C.3       1 UNK         0.0000 
  13712 H(1)       59.7800  108.0991   10.3744 H         1 UNK         0.0000 
  13713 H(2)       59.7973  105.6483   10.3903 H         1 UNK         0.0000 
  13714 H(3)       55.9377  105.5888    8.5104 H         1 UNK         0.0000 
  13715 H(4)       55.9249  108.0591    8.4961 H         1 UNK         0.0000 
  13716 H(5)       57.0677  103.7062    9.2841 H         1 UNK         0.0000 
  13717 H(6)       56.8319  110.0167    9.1910 H         1 UNK         0.0000 
  13718 H(7)       58.3860  112.4558   10.2352 H         1 UNK         0.0000 
  13719 H(8)       57.3110  112.0908    8.9420 H         1 UNK         0.0000 
  13720 H(9)       58.9882  112.5103    8.6612 H         1 UNK         0.0000 
  13721 O(1)       48.1211  116.2865   15.5017 O.3       1 UNK         0.0000 
  13722 O(2)       50.1189  117.5266    9.4577 O.2       1 UNK         0.0000 
  13723 N(1)       47.9377  117.5773   10.0886 N.am      1 UNK         0.0000 
  13724 C(1)       48.0372  117.2183   11.4515 C.ar      1 UNK         0.0000 
  13725 C(2)       49.1193  116.5325   12.0027 C.ar      1 UNK         0.0000 
  13726 C(3)       49.1264  116.2237   13.3599 C.ar      1 UNK         0.0000 
  13727 C(4)       48.0564  116.5864   14.1738 C.ar      1 UNK         0.0000 
  13728 C(5)       46.9607  117.2447   13.6167 C.ar      1 UNK         0.0000 
  13729 C(6)       46.9554  117.5576   12.2649 C.ar      1 UNK         0.0000 
  13730 C(7)       48.9285  117.7301    9.1951 C.2       1 UNK         0.0000 
  13731 C(8)       48.4877  118.1627    7.8224 C.3       1 UNK         0.0000 
  13732 H(1)       49.9599  116.2468   11.3824 H         1 UNK         0.0000 
  13733 H(2)       49.9772  115.6938   13.7701 H         1 UNK         0.0000 
  13734 H(3)       46.1176  117.5148   14.2404 H         1 UNK         0.0000 
  13735 H(4)       46.1048  118.0707   11.8334 H         1 UNK         0.0000 
  13736 H(5)       47.2476  116.3471   15.9075 H         1 UNK         0.0000 
  13737 H(6)       47.0118  117.8220    9.7711 H         1 UNK         0.0000 
  13738 H(7)       48.5659  117.3383    7.1624 H         1 UNK         0.0000 
  13739 H(8)       47.4909  118.5199    7.8021 H         1 UNK         0.0000 
  13740 H(9)       49.1681  118.8858    7.4544 H         1 UNK         0.0000 
  13741 O(1)       49.2538  112.9257   12.3169 O.3       1 UNK         0.0000 
  13742 O(2)       47.2560  106.7569   12.2011 O.2       1 UNK         0.0000 
  13743 N(1)       49.4371  107.3613   12.3888 N.am      1 UNK         0.0000 
  13744 C(1)       49.3377  108.7698   12.3376 C.ar      1 UNK         0.0000 
  13745 C(2)       48.2555  109.4580   11.7893 C.ar      1 UNK         0.0000 
  13746 C(3)       48.2485  110.8498   11.7858 C.ar      1 UNK         0.0000 
  13747 C(4)       49.3185  111.5644   12.3181 C.ar      1 UNK         0.0000 
  13748 C(5)       50.4141  110.8765   12.8383 C.ar      1 UNK         0.0000 
  13749 C(6)       50.4194  109.4889   12.8470 C.ar      1 UNK         0.0000 
  13750 C(7)       48.4463  106.4560   12.3420 C.2       1 UNK         0.0000 
  13751 C(8)       48.8872  105.0219   12.4630 C.3       1 UNK         0.0000 
  13752 H(1)       47.4150  108.9154   11.3746 H         1 UNK         0.0000 
  13753 H(2)       47.3977  111.3663   11.3587 H         1 UNK         0.0000 
  13754 H(3)       51.2573  111.4257   13.2386 H         1 UNK         0.0000 
  13755 H(4)       51.2700  108.9554   13.2530 H         1 UNK         0.0000 
  13756 H(5)       50.1272  113.3083   12.4649 H         1 UNK         0.0000 
  13757 H(6)       50.3631  106.9979   12.5580 H         1 UNK         0.0000 
  13758 H(7)       48.8089  104.5588   11.5138 H         1 UNK         0.0000 
  13759 H(8)       49.8840  104.9238   12.8070 H         1 UNK         0.0000 
  13760 H(9)       48.2067  104.5042   13.0878 H         1 UNK         0.0000 
  13761 O(1)       53.5877  121.1413   13.4097 O.3       1 UNK         0.0000 
  13762 O(2)       51.5899  119.9012   19.4537 O.2       1 UNK         0.0000 
  13763 N(1)       53.7710  119.8506   18.8228 N.am      1 UNK         0.0000 
  13764 C(1)       53.6716  120.2095   17.4599 C.ar      1 UNK         0.0000 
  13765 C(2)       52.5894  120.8954   16.9087 C.ar      1 UNK         0.0000 
  13766 C(3)       52.5824  121.2042   15.5516 C.ar      1 UNK         0.0000 
  13767 C(4)       53.6524  120.8415   14.7376 C.ar      1 UNK         0.0000 
  13768 C(5)       54.7480  120.1831   15.2947 C.ar      1 UNK         0.0000 
  13769 C(6)       54.7533  119.8702   16.6465 C.ar      1 UNK         0.0000 
  13770 C(7)       52.7802  119.6978   19.7163 C.2       1 UNK         0.0000 
  13771 C(8)       53.2211  119.2651   21.0890 C.3       1 UNK         0.0000 
  13772 H(1)       51.7489  121.1810   17.5290 H         1 UNK         0.0000 
  13773 H(2)       51.7316  121.7341   15.1413 H         1 UNK         0.0000 
  13774 H(3)       55.5912  119.9130   14.6710 H         1 UNK         0.0000 
  13775 H(4)       55.6039  119.3572   17.0780 H         1 UNK         0.0000 
  13776 H(5)       54.4611  121.0808   13.0039 H         1 UNK         0.0000 
  13777 H(6)       54.6970  119.6059   19.1403 H         1 UNK         0.0000 
  13778 H(7)       53.1428  120.0896   21.7490 H         1 UNK         0.0000 
  13779 H(8)       54.2179  118.9080   21.1093 H         1 UNK         0.0000 
  13780 H(9)       52.5406  118.5420   21.4570 H         1 UNK         0.0000 
  13781 O(1)       57.9412  109.8198   16.5945 O.3       1 UNK         0.0000 
  13782 O(2)       59.9390  115.9886   16.7103 O.2       1 UNK         0.0000 
  13783 N(1)       57.7578  115.3842   16.5226 N.am      1 UNK         0.0000 
  13784 C(1)       57.8573  113.9758   16.5738 C.ar      1 UNK         0.0000 
  13785 C(2)       58.9395  113.2875   17.1221 C.ar      1 UNK         0.0000 
  13786 C(3)       58.9465  111.8957   17.1257 C.ar      1 UNK         0.0000 
  13787 C(4)       57.8765  111.1811   16.5933 C.ar      1 UNK         0.0000 
  13788 C(5)       56.7809  111.8690   16.0731 C.ar      1 UNK         0.0000 
  13789 C(6)       56.7756  113.2566   16.0644 C.ar      1 UNK         0.0000 
  13790 C(7)       58.7486  116.2895   16.5694 C.2       1 UNK         0.0000 
  13791 C(8)       58.3078  117.7236   16.4484 C.3       1 UNK         0.0000 
  13792 H(1)       59.7800  113.8301   17.5368 H         1 UNK         0.0000 
  13793 H(2)       59.7973  111.3793   17.5527 H         1 UNK         0.0000 
  13794 H(3)       55.9377  111.3198   15.6728 H         1 UNK         0.0000 
  13795 H(4)       55.9249  113.7901   15.6585 H         1 UNK         0.0000 
  13796 H(5)       57.0677  109.4372   16.4465 H         1 UNK         0.0000 
  13797 H(6)       56.8319  115.7477   16.3534 H         1 UNK         0.0000 
  13798 H(7)       58.3860  118.1867   17.3976 H         1 UNK         0.0000 
  13799 H(8)       57.3110  117.8218   16.1044 H         1 UNK         0.0000 
  13800 H(9)       58.9882  118.2413   15.8236 H         1 UNK         0.0000 
  13801 O(1)       53.6073  107.3352   22.6641 O.3       1 UNK         0.0000 
  13802 O(2)       55.6051  108.5753   16.6201 O.2       1 UNK         0.0000 
  13803 N(1)       53.4240  108.6259   17.2510 N.am      1 UNK         0.0000 
  13804 C(1)       53.5234  108.2670   18.6139 C.ar      1 UNK         0.0000 
  13805 C(2)       54.6056  107.5811   19.1651 C.ar      1 UNK         0.0000 
  13806 C(3)       54.6126  107.2723   20.5223 C.ar      1 UNK         0.0000 
  13807 C(4)       53.5426  107.6350   21.3362 C.ar      1 UNK         0.0000 
  13808 C(5)       52.4470  108.2934   20.7791 C.ar      1 UNK         0.0000 
  13809 C(6)       52.4417  108.6062   19.4273 C.ar      1 UNK         0.0000 
  13810 C(7)       54.4147  108.7787   16.3575 C.2       1 UNK         0.0000 
  13811 C(8)       53.9739  109.2114   14.9848 C.3       1 UNK         0.0000 
  13812 H(1)       55.4461  107.2954   18.5448 H         1 UNK         0.0000 
  13813 H(2)       55.4634  106.7424   20.9325 H         1 UNK         0.0000 
  13814 H(3)       51.6038  108.5635   21.4028 H         1 UNK         0.0000 
  13815 H(4)       51.5910  109.1193   18.9958 H         1 UNK         0.0000 
  13816 H(5)       52.7338  107.3957   23.0699 H         1 UNK         0.0000 
  13817 H(6)       52.4980  108.8706   16.9335 H         1 UNK         0.0000 
  13818 H(7)       54.0521  108.3869   14.3248 H         1 UNK         0.0000 
  13819 H(8)       52.9771  109.5685   14.9645 H         1 UNK         0.0000 
  13820 H(9)       54.6544  109.9345   14.6168 H         1 UNK         0.0000 
  13821 O(1)       56.3308  118.6567   19.4793 O.3       1 UNK         0.0000 
  13822 O(2)       54.3330  112.4879   19.3635 O.2       1 UNK         0.0000 
  13823 N(1)       56.5141  113.0923   19.5512 N.am      1 UNK         0.0000 
  13824 C(1)       56.4147  114.5007   19.5000 C.ar      1 UNK         0.0000 
  13825 C(2)       55.3325  115.1890   18.9517 C.ar      1 UNK         0.0000 
  13826 C(3)       55.3255  116.5808   18.9482 C.ar      1 UNK         0.0000 
  13827 C(4)       56.3955  117.2954   19.4805 C.ar      1 UNK         0.0000 
  13828 C(5)       57.4911  116.6074   20.0007 C.ar      1 UNK         0.0000 
  13829 C(6)       57.4964  115.2199   20.0094 C.ar      1 UNK         0.0000 
  13830 C(7)       55.5233  112.1870   19.5044 C.2       1 UNK         0.0000 
  13831 C(8)       55.9642  110.7529   19.6254 C.3       1 UNK         0.0000 
  13832 H(1)       54.4920  114.6464   18.5370 H         1 UNK         0.0000 
  13833 H(2)       54.4747  117.0972   18.5211 H         1 UNK         0.0000 
  13834 H(3)       58.3343  117.1567   20.4010 H         1 UNK         0.0000 
  13835 H(4)       58.3470  114.6864   20.4154 H         1 UNK         0.0000 
  13836 H(5)       57.2042  119.0393   19.6273 H         1 UNK         0.0000 
  13837 H(6)       57.4401  112.7288   19.7204 H         1 UNK         0.0000 
  13838 H(7)       55.8859  110.2898   18.6762 H         1 UNK         0.0000 
  13839 H(8)       56.9610  110.6547   19.9694 H         1 UNK         0.0000 
  13840 H(9)       55.2837  110.2352   20.2502 H         1 UNK         0.0000 
  13841 O(1)       51.9969  112.1899   20.5721 O.3       1 UNK         0.0000 
  13842 O(2)       49.9991  110.9499   26.6161 O.2       1 UNK         0.0000 
  13843 N(1)       52.1802  110.8992   25.9852 N.am      1 UNK         0.0000 
  13844 C(1)       52.0808  111.2581   24.6223 C.ar      1 UNK         0.0000 
  13845 C(2)       50.9986  111.9440   24.0711 C.ar      1 UNK         0.0000 
  13846 C(3)       50.9916  112.2528   22.7140 C.ar      1 UNK         0.0000 
  13847 C(4)       52.0616  111.8901   21.9000 C.ar      1 UNK         0.0000 
  13848 C(5)       53.1572  111.2318   22.4571 C.ar      1 UNK         0.0000 
  13849 C(6)       53.1625  110.9189   23.8089 C.ar      1 UNK         0.0000 
  13850 C(7)       51.1895  110.7464   26.8787 C.2       1 UNK         0.0000 
  13851 C(8)       51.6303  110.3138   28.2514 C.3       1 UNK         0.0000 
  13852 H(1)       50.1581  112.2297   24.6914 H         1 UNK         0.0000 
  13853 H(2)       50.1408  112.7827   22.3037 H         1 UNK         0.0000 
  13854 H(3)       54.0004  110.9617   21.8334 H         1 UNK         0.0000 
  13855 H(4)       54.0131  110.4058   24.2404 H         1 UNK         0.0000 
  13856 H(5)       52.8703  112.1294   20.1663 H         1 UNK         0.0000 
  13857 H(6)       53.1062  110.6545   26.3027 H         1 UNK         0.0000 
  13858 H(7)       51.5520  111.1382   28.9114 H         1 UNK         0.0000 
  13859 H(8)       52.6271  109.9566   28.2717 H         1 UNK         0.0000 
  13860 H(9)       50.9498  109.5907   28.6194 H         1 UNK         0.0000 
  13861 O(1)       50.8642  115.5508   23.7569 O.3       1 UNK         0.0000 
  13862 O(2)       52.8620  121.7196   23.8727 O.2       1 UNK         0.0000 
  13863 N(1)       50.6808  121.1152   23.6850 N.am      1 UNK         0.0000 
  13864 C(1)       50.7803  119.7067   23.7362 C.ar      1 UNK         0.0000 
  13865 C(2)       51.8625  119.0185   24.2845 C.ar      1 UNK         0.0000 
  13866 C(3)       51.8695  117.6267   24.2881 C.ar      1 UNK         0.0000 
  13867 C(4)       50.7995  116.9121   23.7557 C.ar      1 UNK         0.0000 
  13868 C(5)       49.7039  117.6000   23.2355 C.ar      1 UNK         0.0000 
  13869 C(6)       49.6985  118.9876   23.2268 C.ar      1 UNK         0.0000 
  13870 C(7)       51.6716  122.0205   23.7318 C.2       1 UNK         0.0000 
  13871 C(8)       51.2308  123.4546   23.6108 C.3       1 UNK         0.0000 
  13872 H(1)       52.7030  119.5610   24.6992 H         1 UNK         0.0000 
  13873 H(2)       52.7203  117.1102   24.7151 H         1 UNK         0.0000 
  13874 H(3)       48.8607  117.0508   22.8352 H         1 UNK         0.0000 
  13875 H(4)       48.8479  119.5211   22.8209 H         1 UNK         0.0000 
  13876 H(5)       49.9907  115.1682   23.6089 H         1 UNK         0.0000 
  13877 H(6)       49.7549  121.4786   23.5158 H         1 UNK         0.0000 
  13878 H(7)       51.3090  123.9177   24.5600 H         1 UNK         0.0000 
  13879 H(8)       50.2340  123.5527   23.2668 H         1 UNK         0.0000 
  13880 H(9)       51.9112  123.9723   22.9860 H         1 UNK         0.0000 
  13881 O(1)       55.1981  110.5556    8.3393 O.3       1 UNK         0.0000 
  13882 O(2)       57.1959  111.7957    2.2953 O.2       1 UNK         0.0000 
  13883 N(1)       55.0147  111.8463    2.9262 N.am      1 UNK         0.0000 
  13884 C(1)       55.1142  111.4874    4.2891 C.ar      1 UNK         0.0000 
  13885 C(2)       56.1963  110.8015    4.8403 C.ar      1 UNK         0.0000 
  13886 C(3)       56.2034  110.4927    6.1975 C.ar      1 UNK         0.0000 
  13887 C(4)       55.1334  110.8554    7.0114 C.ar      1 UNK         0.0000 
  13888 C(5)       54.0377  111.5138    6.4543 C.ar      1 UNK         0.0000 
  13889 C(6)       54.0324  111.8266    5.1025 C.ar      1 UNK         0.0000 
  13890 C(7)       56.0055  111.9991    2.0327 C.2       1 UNK         0.0000 
  13891 C(8)       55.5647  112.4318    0.6600 C.3       1 UNK         0.0000 
  13892 H(1)       57.0369  110.5158    4.2200 H         1 UNK         0.0000 
  13893 H(2)       57.0542  109.9628    6.6077 H         1 UNK         0.0000 
  13894 H(3)       53.1946  111.7839    7.0780 H         1 UNK         0.0000 
  13895 H(4)       53.1818  112.3397    4.6710 H         1 UNK         0.0000 
  13896 H(5)       54.3246  110.6161    8.7451 H         1 UNK         0.0000 
  13897 H(6)       54.0888  112.0910    2.6087 H         1 UNK         0.0000 
  13898 H(7)       55.6429  111.6073    0.0000 H         1 UNK         0.0000 
  13899 H(8)       54.5679  112.7889    0.6397 H         1 UNK         0.0000 
  13900 H(9)       56.2451  113.1549    0.2920 H         1 UNK         0.0000 
  13901 O(1)       57.9216  121.8771    5.1545 O.3       1 UNK         0.0000 
  13902 O(2)       55.9238  115.7083    5.0387 O.2       1 UNK         0.0000 
  13903 N(1)       58.1049  116.3127    5.2264 N.am      1 UNK         0.0000 
  13904 C(1)       58.0055  117.7211    5.1752 C.ar      1 UNK         0.0000 
  13905 C(2)       56.9233  118.4094    4.6269 C.ar      1 UNK         0.0000 
  13906 C(3)       56.9163  119.8012    4.6234 C.ar      1 UNK         0.0000 
  13907 C(4)       57.9863  120.5158    5.1557 C.ar      1 UNK         0.0000 
  13908 C(5)       59.0819  119.8278    5.6759 C.ar      1 UNK         0.0000 
  13909 C(6)       59.0872  118.4403    5.6846 C.ar      1 UNK         0.0000 
  13910 C(7)       57.1141  115.4074    5.1796 C.2       1 UNK         0.0000 
  13911 C(8)       57.5550  113.9733    5.3006 C.3       1 UNK         0.0000 
  13912 H(1)       56.0828  117.8668    4.2122 H         1 UNK         0.0000 
  13913 H(2)       56.0655  120.3176    4.1963 H         1 UNK         0.0000 
  13914 H(3)       59.9251  120.3771    6.0762 H         1 UNK         0.0000 
  13915 H(4)       59.9378  117.9068    6.0906 H         1 UNK         0.0000 
  13916 H(5)       58.7950  122.2597    5.3025 H         1 UNK         0.0000 
  13917 H(6)       59.0309  115.9492    5.3956 H         1 UNK         0.0000 
  13918 H(7)       57.4767  113.5102    4.3514 H         1 UNK         0.0000 
  13919 H(8)       58.5518  113.8751    5.6446 H         1 UNK         0.0000 
  13920 H(9)       56.8745  113.4556    5.9254 H         1 UNK         0.0000 
  13921 O(1)       55.1785  130.0927    6.2473 O.3       1 UNK         0.0000 
  13922 O(2)       53.1807  128.8526   12.2913 O.2       1 UNK         0.0000 
  13923 N(1)       55.3618  128.8020   11.6604 N.am      1 UNK         0.0000 
  13924 C(1)       55.2623  129.1609   10.2975 C.ar      1 UNK         0.0000 
  13925 C(2)       54.1802  129.8468    9.7463 C.ar      1 UNK         0.0000 
  13926 C(3)       54.1732  130.1555    8.3892 C.ar      1 UNK         0.0000 
  13927 C(4)       55.2432  129.7929    7.5752 C.ar      1 UNK         0.0000 
  13928 C(5)       56.3388  129.1345    8.1323 C.ar      1 UNK         0.0000 
  13929 C(6)       56.3441  128.8216    9.4841 C.ar      1 UNK         0.0000 
  13930 C(7)       54.3710  128.6491   12.5539 C.2       1 UNK         0.0000 
  13931 C(8)       54.8119  128.2165   13.9266 C.3       1 UNK         0.0000 
  13932 H(1)       53.3397  130.1324   10.3666 H         1 UNK         0.0000 
  13933 H(2)       53.3223  130.6854    7.9789 H         1 UNK         0.0000 
  13934 H(3)       57.1820  128.8644    7.5086 H         1 UNK         0.0000 
  13935 H(4)       57.1947  128.3085    9.9156 H         1 UNK         0.0000 
  13936 H(5)       56.0519  130.0322    5.8415 H         1 UNK         0.0000 
  13937 H(6)       56.2878  128.5572   11.9779 H         1 UNK         0.0000 
  13938 H(7)       54.7336  129.0410   14.5866 H         1 UNK         0.0000 
  13939 H(8)       55.8087  127.8594   13.9469 H         1 UNK         0.0000 
  13940 H(9)       54.1314  127.4934   14.2946 H         1 UNK         0.0000 
  13941 O(1)       59.5320  118.7712    9.4321 O.3       1 UNK         0.0000 
  13942 O(2)       61.5298  124.9400    9.5479 O.2       1 UNK         0.0000 
  13943 N(1)       59.3486  124.3356    9.3602 N.am      1 UNK         0.0000 
  13944 C(1)       59.4481  122.9271    9.4114 C.ar      1 UNK         0.0000 
  13945 C(2)       60.5302  122.2389    9.9597 C.ar      1 UNK         0.0000 
  13946 C(3)       60.5373  120.8471    9.9633 C.ar      1 UNK         0.0000 
  13947 C(4)       59.4672  120.1325    9.4309 C.ar      1 UNK         0.0000 
  13948 C(5)       58.3716  120.8204    8.9107 C.ar      1 UNK         0.0000 
  13949 C(6)       58.3663  122.2080    8.9020 C.ar      1 UNK         0.0000 
  13950 C(7)       60.3394  125.2409    9.4070 C.2       1 UNK         0.0000 
  13951 C(8)       59.8986  126.6750    9.2860 C.3       1 UNK         0.0000 
  13952 H(1)       61.3708  122.7814   10.3744 H         1 UNK         0.0000 
  13953 H(2)       61.3881  120.3306   10.3903 H         1 UNK         0.0000 
  13954 H(3)       57.5285  120.2712    8.5104 H         1 UNK         0.0000 
  13955 H(4)       57.5157  122.7415    8.4961 H         1 UNK         0.0000 
  13956 H(5)       58.6585  118.3886    9.2841 H         1 UNK         0.0000 
  13957 H(6)       58.4227  124.6990    9.1910 H         1 UNK         0.0000 
  13958 H(7)       59.9768  127.1381   10.2352 H         1 UNK         0.0000 
  13959 H(8)       58.9018  126.7731    8.9420 H         1 UNK         0.0000 
  13960 H(9)       60.5790  127.1927    8.6612 H         1 UNK         0.0000 
  13961 O(1)       49.7119  130.9689   15.5017 O.3       1 UNK         0.0000 
  13962 O(2)       51.7097  132.2090    9.4577 O.2       1 UNK         0.0000 
  13963 N(1)       49.5285  132.2596   10.0886 N.am      1 UNK         0.0000 
  13964 C(1)       49.6280  131.9007   11.4515 C.ar      1 UNK         0.0000 
  13965 C(2)       50.7101  131.2148   12.0027 C.ar      1 UNK         0.0000 
  13966 C(3)       50.7172  130.9060   13.3599 C.ar      1 UNK         0.0000 
  13967 C(4)       49.6471  131.2687   14.1738 C.ar      1 UNK         0.0000 
  13968 C(5)       48.5515  131.9271   13.6167 C.ar      1 UNK         0.0000 
  13969 C(6)       48.5462  132.2399   12.2649 C.ar      1 UNK         0.0000 
  13970 C(7)       50.5193  132.4124    9.1951 C.2       1 UNK         0.0000 
  13971 C(8)       50.0784  132.8451    7.8224 C.3       1 UNK         0.0000 
  13972 H(1)       51.5507  130.9291   11.3824 H         1 UNK         0.0000 
  13973 H(2)       51.5680  130.3761   13.7701 H         1 UNK         0.0000 
  13974 H(3)       47.7084  132.1972   14.2404 H         1 UNK         0.0000 
  13975 H(4)       47.6956  132.7530   11.8334 H         1 UNK         0.0000 
  13976 H(5)       48.8384  131.0294   15.9075 H         1 UNK         0.0000 
  13977 H(6)       48.6026  132.5043    9.7711 H         1 UNK         0.0000 
  13978 H(7)       50.1567  132.0206    7.1624 H         1 UNK         0.0000 
  13979 H(8)       49.0817  133.2022    7.8021 H         1 UNK         0.0000 
  13980 H(9)       50.7589  133.5682    7.4544 H         1 UNK         0.0000 
  13981 O(1)       50.8446  127.6080   12.3169 O.3       1 UNK         0.0000 
  13982 O(2)       48.8468  121.4393   12.2011 O.2       1 UNK         0.0000 
  13983 N(1)       51.0279  122.0437   12.3888 N.am      1 UNK         0.0000 
  13984 C(1)       50.9285  123.4521   12.3376 C.ar      1 UNK         0.0000 
  13985 C(2)       49.8463  124.1403   11.7893 C.ar      1 UNK         0.0000 
  13986 C(3)       49.8393  125.5321   11.7858 C.ar      1 UNK         0.0000 
  13987 C(4)       50.9093  126.2467   12.3181 C.ar      1 UNK         0.0000 
  13988 C(5)       52.0049  125.5588   12.8383 C.ar      1 UNK         0.0000 
  13989 C(6)       52.0102  124.1713   12.8470 C.ar      1 UNK         0.0000 
  13990 C(7)       50.0371  121.1383   12.3420 C.2       1 UNK         0.0000 
  13991 C(8)       50.4780  119.7042   12.4630 C.3       1 UNK         0.0000 
  13992 H(1)       49.0058  123.5978   11.3746 H         1 UNK         0.0000 
  13993 H(2)       48.9885  126.0486   11.3587 H         1 UNK         0.0000 
  13994 H(3)       52.8481  126.1081   13.2386 H         1 UNK         0.0000 
  13995 H(4)       52.8608  123.6378   13.2530 H         1 UNK         0.0000 
  13996 H(5)       51.7180  127.9906   12.4649 H         1 UNK         0.0000 
  13997 H(6)       51.9539  121.6802   12.5580 H         1 UNK         0.0000 
  13998 H(7)       50.3997  119.2411   11.5138 H         1 UNK         0.0000 
  13999 H(8)       51.4748  119.6061   12.8070 H         1 UNK         0.0000 
  14000 H(9)       49.7975  119.1866   13.0878 H         1 UNK         0.0000 
  14001 O(1)       55.1785  135.8236   13.4097 O.3       1 UNK         0.0000 
  14002 O(2)       53.1807  134.5836   19.4537 O.2       1 UNK         0.0000 
  14003 N(1)       55.3618  134.5329   18.8228 N.am      1 UNK         0.0000 
  14004 C(1)       55.2623  134.8918   17.4599 C.ar      1 UNK         0.0000 
  14005 C(2)       54.1802  135.5777   16.9087 C.ar      1 UNK         0.0000 
  14006 C(3)       54.1732  135.8865   15.5516 C.ar      1 UNK         0.0000 
  14007 C(4)       55.2432  135.5238   14.7376 C.ar      1 UNK         0.0000 
  14008 C(5)       56.3388  134.8654   15.2947 C.ar      1 UNK         0.0000 
  14009 C(6)       56.3441  134.5526   16.6465 C.ar      1 UNK         0.0000 
  14010 C(7)       54.3710  134.3801   19.7163 C.2       1 UNK         0.0000 
  14011 C(8)       54.8119  133.9475   21.0890 C.3       1 UNK         0.0000 
  14012 H(1)       53.3397  135.8634   17.5290 H         1 UNK         0.0000 
  14013 H(2)       53.3223  136.4164   15.1413 H         1 UNK         0.0000 
  14014 H(3)       57.1820  134.5954   14.6710 H         1 UNK         0.0000 
  14015 H(4)       57.1947  134.0395   17.0780 H         1 UNK         0.0000 
  14016 H(5)       56.0519  135.7631   13.0039 H         1 UNK         0.0000 
  14017 H(6)       56.2878  134.2882   19.1403 H         1 UNK         0.0000 
  14018 H(7)       54.7336  134.7719   21.7490 H         1 UNK         0.0000 
  14019 H(8)       55.8087  133.5903   21.1093 H         1 UNK         0.0000 
  14020 H(9)       54.1314  133.2244   21.4570 H         1 UNK         0.0000 
  14021 O(1)       59.5320  124.5021   16.5945 O.3       1 UNK         0.0000 
  14022 O(2)       61.5298  130.6709   16.7103 O.2       1 UNK         0.0000 
  14023 N(1)       59.3486  130.0665   16.5226 N.am      1 UNK         0.0000 
  14024 C(1)       59.4481  128.6581   16.5738 C.ar      1 UNK         0.0000 
  14025 C(2)       60.5302  127.9699   17.1221 C.ar      1 UNK         0.0000 
  14026 C(3)       60.5373  126.5781   17.1257 C.ar      1 UNK         0.0000 
  14027 C(4)       59.4672  125.8635   16.5933 C.ar      1 UNK         0.0000 
  14028 C(5)       58.3716  126.5514   16.0731 C.ar      1 UNK         0.0000 
  14029 C(6)       58.3663  127.9389   16.0644 C.ar      1 UNK         0.0000 
  14030 C(7)       60.3394  130.9718   16.5694 C.2       1 UNK         0.0000 
  14031 C(8)       59.8986  132.4060   16.4484 C.3       1 UNK         0.0000 
  14032 H(1)       61.3708  128.5124   17.5368 H         1 UNK         0.0000 
  14033 H(2)       61.3881  126.0616   17.5527 H         1 UNK         0.0000 
  14034 H(3)       57.5285  126.0021   15.6728 H         1 UNK         0.0000 
  14035 H(4)       57.5157  128.4724   15.6585 H         1 UNK         0.0000 
  14036 H(5)       58.6585  124.1195   16.4465 H         1 UNK         0.0000 
  14037 H(6)       58.4227  130.4300   16.3534 H         1 UNK         0.0000 
  14038 H(7)       59.9768  132.8691   17.3976 H         1 UNK         0.0000 
  14039 H(8)       58.9018  132.5041   16.1044 H         1 UNK         0.0000 
  14040 H(9)       60.5790  132.9236   15.8236 H         1 UNK         0.0000 
  14041 O(1)       55.1981  122.0175   22.6641 O.3       1 UNK         0.0000 
  14042 O(2)       57.1959  123.2576   16.6201 O.2       1 UNK         0.0000 
  14043 N(1)       55.0147  123.3082   17.2510 N.am      1 UNK         0.0000 
  14044 C(1)       55.1142  122.9493   18.6139 C.ar      1 UNK         0.0000 
  14045 C(2)       56.1963  122.2634   19.1651 C.ar      1 UNK         0.0000 
  14046 C(3)       56.2034  121.9547   20.5223 C.ar      1 UNK         0.0000 
  14047 C(4)       55.1334  122.3173   21.3362 C.ar      1 UNK         0.0000 
  14048 C(5)       54.0377  122.9757   20.7791 C.ar      1 UNK         0.0000 
  14049 C(6)       54.0324  123.2886   19.4273 C.ar      1 UNK         0.0000 
  14050 C(7)       56.0055  123.4611   16.3575 C.2       1 UNK         0.0000 
  14051 C(8)       55.5647  123.8937   14.9848 C.3       1 UNK         0.0000 
  14052 H(1)       57.0369  121.9778   18.5448 H         1 UNK         0.0000 
  14053 H(2)       57.0542  121.4248   20.9325 H         1 UNK         0.0000 
  14054 H(3)       53.1946  123.2458   21.4028 H         1 UNK         0.0000 
  14055 H(4)       53.1818  123.8016   18.9958 H         1 UNK         0.0000 
  14056 H(5)       54.3246  122.0780   23.0699 H         1 UNK         0.0000 
  14057 H(6)       54.0888  123.5530   16.9335 H         1 UNK         0.0000 
  14058 H(7)       55.6429  123.0692   14.3248 H         1 UNK         0.0000 
  14059 H(8)       54.5679  124.2508   14.9645 H         1 UNK         0.0000 
  14060 H(9)       56.2451  124.6168   14.6168 H         1 UNK         0.0000 
  14061 O(1)       57.9216  133.3390   19.4793 O.3       1 UNK         0.0000 
  14062 O(2)       55.9238  127.1702   19.3635 O.2       1 UNK         0.0000 
  14063 N(1)       58.1049  127.7746   19.5512 N.am      1 UNK         0.0000 
  14064 C(1)       58.0055  129.1831   19.5000 C.ar      1 UNK         0.0000 
  14065 C(2)       56.9233  129.8713   18.9517 C.ar      1 UNK         0.0000 
  14066 C(3)       56.9163  131.2631   18.9482 C.ar      1 UNK         0.0000 
  14067 C(4)       57.9863  131.9777   19.4805 C.ar      1 UNK         0.0000 
  14068 C(5)       59.0819  131.2898   20.0007 C.ar      1 UNK         0.0000 
  14069 C(6)       59.0872  129.9022   20.0094 C.ar      1 UNK         0.0000 
  14070 C(7)       57.1141  126.8693   19.5044 C.2       1 UNK         0.0000 
  14071 C(8)       57.5550  125.4352   19.6254 C.3       1 UNK         0.0000 
  14072 H(1)       56.0828  129.3287   18.5370 H         1 UNK         0.0000 
  14073 H(2)       56.0655  131.7796   18.5211 H         1 UNK         0.0000 
  14074 H(3)       59.9251  131.8390   20.4010 H         1 UNK         0.0000 
  14075 H(4)       59.9378  129.3687   20.4154 H         1 UNK         0.0000 
  14076 H(5)       58.7950  133.7216   19.6273 H         1 UNK         0.0000 
  14077 H(6)       59.0309  127.4112   19.7204 H         1 UNK         0.0000 
  14078 H(7)       57.4767  124.9721   18.6762 H         1 UNK         0.0000 
  14079 H(8)       58.5518  125.3370   19.9694 H         1 UNK         0.0000 
  14080 H(9)       56.8745  124.9175   20.2502 H         1 UNK         0.0000 
  14081 O(1)       53.5877  126.8723   20.5721 O.3       1 UNK         0.0000 
  14082 O(2)       51.5899  125.6322   26.6161 O.2       1 UNK         0.0000 
  14083 N(1)       53.7710  125.5816   25.9852 N.am      1 UNK         0.0000 
  14084 C(1)       53.6716  125.9405   24.6223 C.ar      1 UNK         0.0000 
  14085 C(2)       52.5894  126.6264   24.0711 C.ar      1 UNK         0.0000 
  14086 C(3)       52.5824  126.9351   22.7140 C.ar      1 UNK         0.0000 
  14087 C(4)       53.6524  126.5725   21.9000 C.ar      1 UNK         0.0000 
  14088 C(5)       54.7480  125.9141   22.4571 C.ar      1 UNK         0.0000 
  14089 C(6)       54.7533  125.6012   23.8089 C.ar      1 UNK         0.0000 
  14090 C(7)       52.7802  125.4287   26.8787 C.2       1 UNK         0.0000 
  14091 C(8)       53.2211  124.9961   28.2514 C.3       1 UNK         0.0000 
  14092 H(1)       51.7489  126.9120   24.6914 H         1 UNK         0.0000 
  14093 H(2)       51.7316  127.4650   22.3037 H         1 UNK         0.0000 
  14094 H(3)       55.5912  125.6440   21.8334 H         1 UNK         0.0000 
  14095 H(4)       55.6039  125.0881   24.2404 H         1 UNK         0.0000 
  14096 H(5)       54.4611  126.8118   20.1663 H         1 UNK         0.0000 
  14097 H(6)       54.6970  125.3368   26.3027 H         1 UNK         0.0000 
  14098 H(7)       53.1428  125.8206   28.9114 H         1 UNK         0.0000 
  14099 H(8)       54.2179  124.6390   28.2717 H         1 UNK         0.0000 
  14100 H(9)       52.5406  124.2730   28.6194 H         1 UNK         0.0000 
  14101 O(1)       52.4550  130.2331   23.7569 O.3       1 UNK         0.0000 
  14102 O(2)       54.4528  136.4019   23.8727 O.2       1 UNK         0.0000 
  14103 N(1)       52.2716  135.7975   23.6850 N.am      1 UNK         0.0000 
  14104 C(1)       52.3711  134.3890   23.7362 C.ar      1 UNK         0.0000 
  14105 C(2)       53.4532  133.7008   24.2845 C.ar      1 UNK         0.0000 
  14106 C(3)       53.4603  132.3090   24.2881 C.ar      1 UNK         0.0000 
  14107 C(4)       52.3902  131.5944   23.7557 C.ar      1 UNK         0.0000 
  14108 C(5)       51.2946  132.2823   23.2355 C.ar      1 UNK         0.0000 
  14109 C(6)       51.2893  133.6699   23.2268 C.ar      1 UNK         0.0000 
  14110 C(7)       53.2624  136.7028   23.7318 C.2       1 UNK         0.0000 
  14111 C(8)       52.8216  138.1369   23.6108 C.3       1 UNK         0.0000 
  14112 H(1)       54.2938  134.2434   24.6992 H         1 UNK         0.0000 
  14113 H(2)       54.3111  131.7926   24.7151 H         1 UNK         0.0000 
  14114 H(3)       50.4515  131.7331   22.8352 H         1 UNK         0.0000 
  14115 H(4)       50.4387  134.2034   22.8209 H         1 UNK         0.0000 
  14116 H(5)       51.5815  129.8505   23.6089 H         1 UNK         0.0000 
  14117 H(6)       51.3457  136.1610   23.5158 H         1 UNK         0.0000 
  14118 H(7)       52.8998  138.6000   24.5600 H         1 UNK         0.0000 
  14119 H(8)       51.8248  138.2351   23.2668 H         1 UNK         0.0000 
  14120 H(9)       53.5020  138.6546   22.9860 H         1 UNK         0.0000 
  14121 O(1)       56.7889  125.2379    8.3393 O.3       1 UNK         0.0000 
  14122 O(2)       58.7867  126.4780    2.2953 O.2       1 UNK         0.0000 
  14123 N(1)       56.6055  126.5286    2.9262 N.am      1 UNK         0.0000 
  14124 C(1)       56.7050  126.1697    4.2891 C.ar      1 UNK         0.0000 
  14125 C(2)       57.7871  125.4838    4.8403 C.ar      1 UNK         0.0000 
  14126 C(3)       57.7942  125.1751    6.1975 C.ar      1 UNK         0.0000 
  14127 C(4)       56.7241  125.5377    7.0114 C.ar      1 UNK         0.0000 
  14128 C(5)       55.6285  126.1961    6.4543 C.ar      1 UNK         0.0000 
  14129 C(6)       55.6232  126.5090    5.1025 C.ar      1 UNK         0.0000 
  14130 C(7)       57.5963  126.6815    2.0327 C.2       1 UNK         0.0000 
  14131 C(8)       57.1554  127.1141    0.6600 C.3       1 UNK         0.0000 
  14132 H(1)       58.6277  125.1982    4.2200 H         1 UNK         0.0000 
  14133 H(2)       58.6450  124.6452    6.6077 H         1 UNK         0.0000 
  14134 H(3)       54.7854  126.4662    7.0780 H         1 UNK         0.0000 
  14135 H(4)       54.7726  127.0220    4.6710 H         1 UNK         0.0000 
  14136 H(5)       55.9154  125.2984    8.7451 H         1 UNK         0.0000 
  14137 H(6)       55.6796  126.7734    2.6087 H         1 UNK         0.0000 
  14138 H(7)       57.2337  126.2896    0.0000 H         1 UNK         0.0000 
  14139 H(8)       56.1587  127.4712    0.6397 H         1 UNK         0.0000 
  14140 H(9)       57.8359  127.8372    0.2920 H         1 UNK         0.0000 
  14141 O(1)       59.5124  136.5594    5.1545 O.3       1 UNK         0.0000 
  14142 O(2)       57.5145  130.3906    5.0387 O.2       1 UNK         0.0000 
  14143 N(1)       59.6957  130.9950    5.2264 N.am      1 UNK         0.0000 
  14144 C(1)       59.5962  132.4035    5.1752 C.ar      1 UNK         0.0000 
  14145 C(2)       58.5141  133.0917    4.6269 C.ar      1 UNK         0.0000 
  14146 C(3)       58.5070  134.4835    4.6234 C.ar      1 UNK         0.0000 
  14147 C(4)       59.5771  135.1981    5.1557 C.ar      1 UNK         0.0000 
  14148 C(5)       60.6727  134.5102    5.6759 C.ar      1 UNK         0.0000 
  14149 C(6)       60.6780  133.1226    5.6846 C.ar      1 UNK         0.0000 
  14150 C(7)       58.7049  130.0897    5.1796 C.2       1 UNK         0.0000 
  14151 C(8)       59.1458  128.6556    5.3006 C.3       1 UNK         0.0000 
  14152 H(1)       57.6735  132.5491    4.2122 H         1 UNK         0.0000 
  14153 H(2)       57.6562  135.0000    4.1963 H         1 UNK         0.0000 
  14154 H(3)       61.5158  135.0594    6.0762 H         1 UNK         0.0000 
  14155 H(4)       61.5286  132.5891    6.0906 H         1 UNK         0.0000 
  14156 H(5)       60.3858  136.9420    5.3025 H         1 UNK         0.0000 
  14157 H(6)       60.6217  130.6316    5.3956 H         1 UNK         0.0000 
  14158 H(7)       59.0675  128.1925    4.3514 H         1 UNK         0.0000 
  14159 H(8)       60.1425  128.5574    5.6446 H         1 UNK         0.0000 
  14160 H(9)       58.4653  128.1379    5.9254 H         1 UNK         0.0000 
  14161 O(1)       56.7693  144.7750    6.2473 O.3       1 UNK         0.0000 
  14162 O(2)       54.7714  143.5349   12.2913 O.2       1 UNK         0.0000 
  14163 N(1)       56.9526  143.4843   11.6604 N.am      1 UNK         0.0000 
  14164 C(1)       56.8531  143.8432   10.2975 C.ar      1 UNK         0.0000 
  14165 C(2)       55.7710  144.5291    9.7463 C.ar      1 UNK         0.0000 
  14166 C(3)       55.7639  144.8378    8.3892 C.ar      1 UNK         0.0000 
  14167 C(4)       56.8340  144.4752    7.5752 C.ar      1 UNK         0.0000 
  14168 C(5)       57.9296  143.8168    8.1323 C.ar      1 UNK         0.0000 
  14169 C(6)       57.9349  143.5039    9.4841 C.ar      1 UNK         0.0000 
  14170 C(7)       55.9618  143.3315   12.5539 C.2       1 UNK         0.0000 
  14171 C(8)       56.4027  142.8988   13.9266 C.3       1 UNK         0.0000 
  14172 H(1)       54.9304  144.8147   10.3666 H         1 UNK         0.0000 
  14173 H(2)       54.9131  145.3678    7.9789 H         1 UNK         0.0000 
  14174 H(3)       58.7727  143.5467    7.5086 H         1 UNK         0.0000 
  14175 H(4)       58.7855  142.9909    9.9156 H         1 UNK         0.0000 
  14176 H(5)       57.6427  144.7145    5.8415 H         1 UNK         0.0000 
  14177 H(6)       57.8785  143.2395   11.9779 H         1 UNK         0.0000 
  14178 H(7)       56.3244  143.7233   14.5866 H         1 UNK         0.0000 
  14179 H(8)       57.3994  142.5417   13.9469 H         1 UNK         0.0000 
  14180 H(9)       55.7222  142.1757   14.2946 H         1 UNK         0.0000 
  14181 O(1)       61.1227  133.4535    9.4321 O.3       1 UNK         0.0000 
  14182 O(2)       63.1206  139.6223    9.5479 O.2       1 UNK         0.0000 
  14183 N(1)       60.9394  139.0179    9.3602 N.am      1 UNK         0.0000 
  14184 C(1)       61.0389  137.6094    9.4114 C.ar      1 UNK         0.0000 
  14185 C(2)       62.1210  136.9212    9.9597 C.ar      1 UNK         0.0000 
  14186 C(3)       62.1281  135.5294    9.9633 C.ar      1 UNK         0.0000 
  14187 C(4)       61.0580  134.8148    9.4309 C.ar      1 UNK         0.0000 
  14188 C(5)       59.9624  135.5027    8.9107 C.ar      1 UNK         0.0000 
  14189 C(6)       59.9571  136.8903    8.9020 C.ar      1 UNK         0.0000 
  14190 C(7)       61.9302  139.9232    9.4070 C.2       1 UNK         0.0000 
  14191 C(8)       61.4893  141.3573    9.2860 C.3       1 UNK         0.0000 
  14192 H(1)       62.9616  137.4638   10.3744 H         1 UNK         0.0000 
  14193 H(2)       62.9789  135.0130   10.3903 H         1 UNK         0.0000 
  14194 H(3)       59.1193  134.9535    8.5104 H         1 UNK         0.0000 
  14195 H(4)       59.1065  137.4238    8.4961 H         1 UNK         0.0000 
  14196 H(5)       60.2493  133.0709    9.2841 H         1 UNK         0.0000 
  14197 H(6)       60.0134  139.3814    9.1910 H         1 UNK         0.0000 
  14198 H(7)       61.5676  141.8204   10.2352 H         1 UNK         0.0000 
  14199 H(8)       60.4926  141.4555    8.9420 H         1 UNK         0.0000 
  14200 H(9)       62.1698  141.8750    8.6612 H         1 UNK         0.0000 
  14201 O(1)       51.3026  145.6512   15.5017 O.3       1 UNK         0.0000 
  14202 O(2)       53.3005  146.8913    9.4577 O.2       1 UNK         0.0000 
  14203 N(1)       51.1193  146.9419   10.0886 N.am      1 UNK         0.0000 
  14204 C(1)       51.2188  146.5830   11.4515 C.ar      1 UNK         0.0000 
  14205 C(2)       52.3009  145.8971   12.0027 C.ar      1 UNK         0.0000 
  14206 C(3)       52.3079  145.5884   13.3599 C.ar      1 UNK         0.0000 
  14207 C(4)       51.2379  145.9510   14.1738 C.ar      1 UNK         0.0000 
  14208 C(5)       50.1423  146.6094   13.6167 C.ar      1 UNK         0.0000 
  14209 C(6)       50.1370  146.9223   12.2649 C.ar      1 UNK         0.0000 
  14210 C(7)       52.1101  147.0948    9.1951 C.2       1 UNK         0.0000 
  14211 C(8)       51.6692  147.5274    7.8224 C.3       1 UNK         0.0000 
  14212 H(1)       53.1415  145.6115   11.3824 H         1 UNK         0.0000 
  14213 H(2)       53.1588  145.0585   13.7701 H         1 UNK         0.0000 
  14214 H(3)       49.2991  146.8795   14.2404 H         1 UNK         0.0000 
  14215 H(4)       49.2864  147.4353   11.8334 H         1 UNK         0.0000 
  14216 H(5)       50.4292  145.7117   15.9075 H         1 UNK         0.0000 
  14217 H(6)       50.1933  147.1867    9.7711 H         1 UNK         0.0000 
  14218 H(7)       51.7475  146.7029    7.1624 H         1 UNK         0.0000 
  14219 H(8)       50.6724  147.8845    7.8021 H         1 UNK         0.0000 
  14220 H(9)       52.3497  148.2505    7.4544 H         1 UNK         0.0000 
  14221 O(1)       52.4354  142.2904   12.3169 O.3       1 UNK         0.0000 
  14222 O(2)       50.4375  136.1216   12.2011 O.2       1 UNK         0.0000 
  14223 N(1)       52.6187  136.7260   12.3888 N.am      1 UNK         0.0000 
  14224 C(1)       52.5192  138.1344   12.3376 C.ar      1 UNK         0.0000 
  14225 C(2)       51.4371  138.8226   11.7893 C.ar      1 UNK         0.0000 
  14226 C(3)       51.4300  140.2145   11.7858 C.ar      1 UNK         0.0000 
  14227 C(4)       52.5001  140.9291   12.3181 C.ar      1 UNK         0.0000 
  14228 C(5)       53.5957  140.2411   12.8383 C.ar      1 UNK         0.0000 
  14229 C(6)       53.6010  138.8536   12.8470 C.ar      1 UNK         0.0000 
  14230 C(7)       51.6279  135.8207   12.3420 C.2       1 UNK         0.0000 
  14231 C(8)       52.0688  134.3866   12.4630 C.3       1 UNK         0.0000 
  14232 H(1)       50.5965  138.2801   11.3746 H         1 UNK         0.0000 
  14233 H(2)       50.5792  140.7309   11.3587 H         1 UNK         0.0000 
  14234 H(3)       54.4388  140.7904   13.2386 H         1 UNK         0.0000 
  14235 H(4)       54.4516  138.3201   13.2530 H         1 UNK         0.0000 
  14236 H(5)       53.3088  142.6730   12.4649 H         1 UNK         0.0000 
  14237 H(6)       53.5447  136.3625   12.5580 H         1 UNK         0.0000 
  14238 H(7)       51.9905  133.9235   11.5138 H         1 UNK         0.0000 
  14239 H(8)       53.0655  134.2884   12.8070 H         1 UNK         0.0000 
  14240 H(9)       51.3883  133.8689   13.0878 H         1 UNK         0.0000 
  14241 O(1)       56.7693  150.5060   13.4097 O.3       1 UNK         0.0000 
  14242 O(2)       54.7714  149.2659   19.4537 O.2       1 UNK         0.0000 
  14243 N(1)       56.9526  149.2153   18.8228 N.am      1 UNK         0.0000 
  14244 C(1)       56.8531  149.5742   17.4599 C.ar      1 UNK         0.0000 
  14245 C(2)       55.7710  150.2601   16.9087 C.ar      1 UNK         0.0000 
  14246 C(3)       55.7639  150.5688   15.5516 C.ar      1 UNK         0.0000 
  14247 C(4)       56.8340  150.2062   14.7376 C.ar      1 UNK         0.0000 
  14248 C(5)       57.9296  149.5478   15.2947 C.ar      1 UNK         0.0000 
  14249 C(6)       57.9349  149.2349   16.6465 C.ar      1 UNK         0.0000 
  14250 C(7)       55.9618  149.0624   19.7163 C.2       1 UNK         0.0000 
  14251 C(8)       56.4027  148.6298   21.0890 C.3       1 UNK         0.0000 
  14252 H(1)       54.9304  150.5457   17.5290 H         1 UNK         0.0000 
  14253 H(2)       54.9131  151.0987   15.1413 H         1 UNK         0.0000 
  14254 H(3)       58.7727  149.2777   14.6710 H         1 UNK         0.0000 
  14255 H(4)       58.7855  148.7218   17.0780 H         1 UNK         0.0000 
  14256 H(5)       57.6427  150.4455   13.0039 H         1 UNK         0.0000 
  14257 H(6)       57.8785  148.9705   19.1403 H         1 UNK         0.0000 
  14258 H(7)       56.3244  149.4542   21.7490 H         1 UNK         0.0000 
  14259 H(8)       57.3994  148.2727   21.1093 H         1 UNK         0.0000 
  14260 H(9)       55.7222  147.9067   21.4570 H         1 UNK         0.0000 
  14261 O(1)       61.1227  139.1845   16.5945 O.3       1 UNK         0.0000 
  14262 O(2)       63.1206  145.3533   16.7103 O.2       1 UNK         0.0000 
  14263 N(1)       60.9394  144.7489   16.5226 N.am      1 UNK         0.0000 
  14264 C(1)       61.0389  143.3404   16.5738 C.ar      1 UNK         0.0000 
  14265 C(2)       62.1210  142.6522   17.1221 C.ar      1 UNK         0.0000 
  14266 C(3)       62.1281  141.2604   17.1257 C.ar      1 UNK         0.0000 
  14267 C(4)       61.0580  140.5458   16.5933 C.ar      1 UNK         0.0000 
  14268 C(5)       59.9624  141.2337   16.0731 C.ar      1 UNK         0.0000 
  14269 C(6)       59.9571  142.6212   16.0644 C.ar      1 UNK         0.0000 
  14270 C(7)       61.9302  145.6542   16.5694 C.2       1 UNK         0.0000 
  14271 C(8)       61.4893  147.0883   16.4484 C.3       1 UNK         0.0000 
  14272 H(1)       62.9616  143.1947   17.5368 H         1 UNK         0.0000 
  14273 H(2)       62.9789  140.7439   17.5527 H         1 UNK         0.0000 
  14274 H(3)       59.1193  140.6845   15.6728 H         1 UNK         0.0000 
  14275 H(4)       59.1065  143.1548   15.6585 H         1 UNK         0.0000 
  14276 H(5)       60.2493  138.8019   16.4465 H         1 UNK         0.0000 
  14277 H(6)       60.0134  145.1123   16.3534 H         1 UNK         0.0000 
  14278 H(7)       61.5676  147.5514   17.3976 H         1 UNK         0.0000 
  14279 H(8)       60.4926  147.1864   16.1044 H         1 UNK         0.0000 
  14280 H(9)       62.1698  147.6060   15.8236 H         1 UNK         0.0000 
  14281 O(1)       56.7889  136.6998   22.6641 O.3       1 UNK         0.0000 
  14282 O(2)       58.7867  137.9399   16.6201 O.2       1 UNK         0.0000 
  14283 N(1)       56.6055  137.9906   17.2510 N.am      1 UNK         0.0000 
  14284 C(1)       56.7050  137.6316   18.6139 C.ar      1 UNK         0.0000 
  14285 C(2)       57.7871  136.9458   19.1651 C.ar      1 UNK         0.0000 
  14286 C(3)       57.7942  136.6370   20.5223 C.ar      1 UNK         0.0000 
  14287 C(4)       56.7241  136.9997   21.3362 C.ar      1 UNK         0.0000 
  14288 C(5)       55.6285  137.6580   20.7791 C.ar      1 UNK         0.0000 
  14289 C(6)       55.6232  137.9709   19.4273 C.ar      1 UNK         0.0000 
  14290 C(7)       57.5963  138.1434   16.3575 C.2       1 UNK         0.0000 
  14291 C(8)       57.1554  138.5760   14.9848 C.3       1 UNK         0.0000 
  14292 H(1)       58.6277  136.6601   18.5448 H         1 UNK         0.0000 
  14293 H(2)       58.6450  136.1071   20.9325 H         1 UNK         0.0000 
  14294 H(3)       54.7854  137.9281   21.4028 H         1 UNK         0.0000 
  14295 H(4)       54.7726  138.4840   18.9958 H         1 UNK         0.0000 
  14296 H(5)       55.9154  136.7604   23.0699 H         1 UNK         0.0000 
  14297 H(6)       55.6796  138.2353   16.9335 H         1 UNK         0.0000 
  14298 H(7)       57.2337  137.7516   14.3248 H         1 UNK         0.0000 
  14299 H(8)       56.1587  138.9332   14.9645 H         1 UNK         0.0000 
  14300 H(9)       57.8359  139.2991   14.6168 H         1 UNK         0.0000 
  14301 O(1)       59.5124  148.0213   19.4793 O.3       1 UNK         0.0000 
  14302 O(2)       57.5145  141.8526   19.3635 O.2       1 UNK         0.0000 
  14303 N(1)       59.6957  142.4570   19.5512 N.am      1 UNK         0.0000 
  14304 C(1)       59.5962  143.8654   19.5000 C.ar      1 UNK         0.0000 
  14305 C(2)       58.5141  144.5536   18.9517 C.ar      1 UNK         0.0000 
  14306 C(3)       58.5070  145.9454   18.9482 C.ar      1 UNK         0.0000 
  14307 C(4)       59.5771  146.6600   19.4805 C.ar      1 UNK         0.0000 
  14308 C(5)       60.6727  145.9721   20.0007 C.ar      1 UNK         0.0000 
  14309 C(6)       60.6780  144.5846   20.0094 C.ar      1 UNK         0.0000 
  14310 C(7)       58.7049  141.5516   19.5044 C.2       1 UNK         0.0000 
  14311 C(8)       59.1458  140.1175   19.6254 C.3       1 UNK         0.0000 
  14312 H(1)       57.6735  144.0111   18.5370 H         1 UNK         0.0000 
  14313 H(2)       57.6562  146.4619   18.5211 H         1 UNK         0.0000 
  14314 H(3)       61.5158  146.5214   20.4010 H         1 UNK         0.0000 
  14315 H(4)       61.5286  144.0510   20.4154 H         1 UNK         0.0000 
  14316 H(5)       60.3858  148.4039   19.6273 H         1 UNK         0.0000 
  14317 H(6)       60.6217  142.0935   19.7204 H         1 UNK         0.0000 
  14318 H(7)       59.0675  139.6544   18.6762 H         1 UNK         0.0000 
  14319 H(8)       60.1425  140.0194   19.9694 H         1 UNK         0.0000 
  14320 H(9)       58.4653  139.5998   20.2502 H         1 UNK         0.0000 
  14321 O(1)       55.1785  141.5546   20.5721 O.3       1 UNK         0.0000 
  14322 O(2)       53.1807  140.3145   26.6161 O.2       1 UNK         0.0000 
  14323 N(1)       55.3618  140.2639   25.9852 N.am      1 UNK         0.0000 
  14324 C(1)       55.2623  140.6228   24.6223 C.ar      1 UNK         0.0000 
  14325 C(2)       54.1802  141.3087   24.0711 C.ar      1 UNK         0.0000 
  14326 C(3)       54.1732  141.6174   22.7140 C.ar      1 UNK         0.0000 
  14327 C(4)       55.2432  141.2548   21.9000 C.ar      1 UNK         0.0000 
  14328 C(5)       56.3388  140.5964   22.4571 C.ar      1 UNK         0.0000 
  14329 C(6)       56.3441  140.2835   23.8089 C.ar      1 UNK         0.0000 
  14330 C(7)       54.3710  140.1111   26.8787 C.2       1 UNK         0.0000 
  14331 C(8)       54.8119  139.6784   28.2514 C.3       1 UNK         0.0000 
  14332 H(1)       53.3397  141.5943   24.6914 H         1 UNK         0.0000 
  14333 H(2)       53.3223  142.1474   22.3037 H         1 UNK         0.0000 
  14334 H(3)       57.1820  140.3263   21.8334 H         1 UNK         0.0000 
  14335 H(4)       57.1947  139.7705   24.2404 H         1 UNK         0.0000 
  14336 H(5)       56.0519  141.4941   20.1663 H         1 UNK         0.0000 
  14337 H(6)       56.2878  140.0191   26.3027 H         1 UNK         0.0000 
  14338 H(7)       54.7336  140.5029   28.9114 H         1 UNK         0.0000 
  14339 H(8)       55.8087  139.3213   28.2717 H         1 UNK         0.0000 
  14340 H(9)       54.1314  138.9553   28.6194 H         1 UNK         0.0000 
  14341 O(1)       54.0457  144.9154   23.7569 O.3       1 UNK         0.0000 
  14342 O(2)       56.0436  151.0842   23.8727 O.2       1 UNK         0.0000 
  14343 N(1)       53.8624  150.4798   23.6850 N.am      1 UNK         0.0000 
  14344 C(1)       53.9619  149.0714   23.7362 C.ar      1 UNK         0.0000 
  14345 C(2)       55.0440  148.3832   24.2845 C.ar      1 UNK         0.0000 
  14346 C(3)       55.0511  146.9914   24.2881 C.ar      1 UNK         0.0000 
  14347 C(4)       53.9810  146.2767   23.7557 C.ar      1 UNK         0.0000 
  14348 C(5)       52.8854  146.9647   23.2355 C.ar      1 UNK         0.0000 
  14349 C(6)       52.8801  148.3522   23.2268 C.ar      1 UNK         0.0000 
  14350 C(7)       54.8532  151.3851   23.7318 C.2       1 UNK         0.0000 
  14351 C(8)       54.4123  152.8193   23.6108 C.3       1 UNK         0.0000 
  14352 H(1)       55.8846  148.9257   24.6992 H         1 UNK         0.0000 
  14353 H(2)       55.9019  146.4749   24.7151 H         1 UNK         0.0000 
  14354 H(3)       52.0423  146.4154   22.8352 H         1 UNK         0.0000 
  14355 H(4)       52.0295  148.8857   22.8209 H         1 UNK         0.0000 
  14356 H(5)       53.1723  144.5328   23.6089 H         1 UNK         0.0000 
  14357 H(6)       52.9365  150.8433   23.5158 H         1 UNK         0.0000 
  14358 H(7)       54.4906  153.2824   24.5600 H         1 UNK         0.0000 
  14359 H(8)       53.4156  152.9174   23.2668 H         1 UNK         0.0000 
  14360 H(9)       55.0928  153.3369   22.9860 H         1 UNK         0.0000 
  14361 O(1)       58.3796  139.9202    8.3393 O.3       1 UNK         0.0000 
  14362 O(2)       60.3775  141.1603    2.2953 O.2       1 UNK         0.0000 
  14363 N(1)       58.1963  141.2110    2.9262 N.am      1 UNK         0.0000 
  14364 C(1)       58.2958  140.8520    4.2891 C.ar      1 UNK         0.0000 
  14365 C(2)       59.3779  140.1662    4.8403 C.ar      1 UNK         0.0000 
  14366 C(3)       59.3850  139.8574    6.1975 C.ar      1 UNK         0.0000 
  14367 C(4)       58.3149  140.2201    7.0114 C.ar      1 UNK         0.0000 
  14368 C(5)       57.2193  140.8784    6.4543 C.ar      1 UNK         0.0000 
  14369 C(6)       57.2140  141.1913    5.1025 C.ar      1 UNK         0.0000 
  14370 C(7)       59.1871  141.3638    2.0327 C.2       1 UNK         0.0000 
  14371 C(8)       58.7462  141.7964    0.6600 C.3       1 UNK         0.0000 
  14372 H(1)       60.2185  139.8805    4.2200 H         1 UNK         0.0000 
  14373 H(2)       60.2358  139.3275    6.6077 H         1 UNK         0.0000 
  14374 H(3)       56.3761  141.1485    7.0780 H         1 UNK         0.0000 
  14375 H(4)       56.3634  141.7044    4.6710 H         1 UNK         0.0000 
  14376 H(5)       57.5062  139.9808    8.7451 H         1 UNK         0.0000 
  14377 H(6)       57.2703  141.4557    2.6087 H         1 UNK         0.0000 
  14378 H(7)       58.8245  140.9720    0.0000 H         1 UNK         0.0000 
  14379 H(8)       57.7494  142.1536    0.6397 H         1 UNK         0.0000 
  14380 H(9)       59.4267  142.5195    0.2920 H         1 UNK         0.0000 
  14381 O(1)       61.1031  151.2417    5.1545 O.3       1 UNK         0.0000 
  14382 O(2)       59.1053  145.0729    5.0387 O.2       1 UNK         0.0000 
  14383 N(1)       61.2865  145.6774    5.2264 N.am      1 UNK         0.0000 
  14384 C(1)       61.1870  147.0858    5.1752 C.ar      1 UNK         0.0000 
  14385 C(2)       60.1049  147.7740    4.6269 C.ar      1 UNK         0.0000 
  14386 C(3)       60.0978  149.1658    4.6234 C.ar      1 UNK         0.0000 
  14387 C(4)       61.1679  149.8804    5.1557 C.ar      1 UNK         0.0000 
  14388 C(5)       62.2635  149.1925    5.6759 C.ar      1 UNK         0.0000 
  14389 C(6)       62.2688  147.8050    5.6846 C.ar      1 UNK         0.0000 
  14390 C(7)       60.2957  144.7720    5.1796 C.2       1 UNK         0.0000 
  14391 C(8)       60.7366  143.3379    5.3006 C.3       1 UNK         0.0000 
  14392 H(1)       59.2643  147.2315    4.2122 H         1 UNK         0.0000 
  14393 H(2)       59.2470  149.6823    4.1963 H         1 UNK         0.0000 
  14394 H(3)       63.1066  149.7418    6.0762 H         1 UNK         0.0000 
  14395 H(4)       63.1194  147.2714    6.0906 H         1 UNK         0.0000 
  14396 H(5)       61.9766  151.6243    5.3025 H         1 UNK         0.0000 
  14397 H(6)       62.2124  145.3139    5.3956 H         1 UNK         0.0000 
  14398 H(7)       60.6583  142.8748    4.3514 H         1 UNK         0.0000 
  14399 H(8)       61.7333  143.2398    5.6446 H         1 UNK         0.0000 
  14400 H(9)       60.0561  142.8202    5.9254 H         1 UNK         0.0000 
  14401 O(1)       49.5292   12.6340    6.2473 O.3       1 UNK         0.0000 
  14402 O(2)       47.5314   11.3940   12.2913 O.2       1 UNK         0.0000 
  14403 N(1)       49.7125   11.3433   11.6604 N.am      1 UNK         0.0000 
  14404 C(1)       49.6131   11.7022   10.2975 C.ar      1 UNK         0.0000 
  14405 C(2)       48.5309   12.3881    9.7463 C.ar      1 UNK         0.0000 
  14406 C(3)       48.5239   12.6969    8.3892 C.ar      1 UNK         0.0000 
  14407 C(4)       49.5939   12.3342    7.5752 C.ar      1 UNK         0.0000 
  14408 C(5)       50.6895   11.6758    8.1323 C.ar      1 UNK         0.0000 
  14409 C(6)       50.6948   11.3630    9.4841 C.ar      1 UNK         0.0000 
  14410 C(7)       48.7218   11.1905   12.5539 C.2       1 UNK         0.0000 
  14411 C(8)       49.1626   10.7579   13.9266 C.3       1 UNK         0.0000 
  14412 H(1)       47.6904   12.6738   10.3666 H         1 UNK         0.0000 
  14413 H(2)       47.6731   13.2268    7.9789 H         1 UNK         0.0000 
  14414 H(3)       51.5327   11.4057    7.5086 H         1 UNK         0.0000 
  14415 H(4)       51.5454   10.8499    9.9156 H         1 UNK         0.0000 
  14416 H(5)       50.4026   12.5735    5.8415 H         1 UNK         0.0000 
  14417 H(6)       50.6385   11.0986   11.9779 H         1 UNK         0.0000 
  14418 H(7)       49.0843   11.5823   14.5866 H         1 UNK         0.0000 
  14419 H(8)       50.1594   10.4007   13.9469 H         1 UNK         0.0000 
  14420 H(9)       48.4821   10.0347   14.2946 H         1 UNK         0.0000 
  14421 O(1)       53.8827    1.3125    9.4321 O.3       1 UNK         0.0000 
  14422 O(2)       55.8805    7.4813    9.5479 O.2       1 UNK         0.0000 
  14423 N(1)       53.6994    6.8769    9.3602 N.am      1 UNK         0.0000 
  14424 C(1)       53.7988    5.4685    9.4114 C.ar      1 UNK         0.0000 
  14425 C(2)       54.8810    4.7803    9.9597 C.ar      1 UNK         0.0000 
  14426 C(3)       54.8880    3.3885    9.9633 C.ar      1 UNK         0.0000 
  14427 C(4)       53.8180    2.6738    9.4309 C.ar      1 UNK         0.0000 
  14428 C(5)       52.7224    3.3618    8.9107 C.ar      1 UNK         0.0000 
  14429 C(6)       52.7171    4.7493    8.9020 C.ar      1 UNK         0.0000 
  14430 C(7)       54.6901    7.7822    9.4070 C.2       1 UNK         0.0000 
  14431 C(8)       54.2493    9.2163    9.2860 C.3       1 UNK         0.0000 
  14432 H(1)       55.7215    5.3228   10.3744 H         1 UNK         0.0000 
  14433 H(2)       55.7388    2.8720   10.3903 H         1 UNK         0.0000 
  14434 H(3)       51.8792    2.8125    8.5104 H         1 UNK         0.0000 
  14435 H(4)       51.8665    5.2828    8.4961 H         1 UNK         0.0000 
  14436 H(5)       53.0093    0.9299    9.2841 H         1 UNK         0.0000 
  14437 H(6)       52.7734    7.2404    9.1910 H         1 UNK         0.0000 
  14438 H(7)       54.3275    9.6795   10.2352 H         1 UNK         0.0000 
  14439 H(8)       53.2525    9.3145    8.9420 H         1 UNK         0.0000 
  14440 H(9)       54.9298    9.7340    8.6612 H         1 UNK         0.0000 
  14441 O(1)       44.0626   13.5102   15.5017 O.3       1 UNK         0.0000 
  14442 O(2)       46.0604   14.7503    9.4577 O.2       1 UNK         0.0000 
  14443 N(1)       43.8793   14.8009   10.0886 N.am      1 UNK         0.0000 
  14444 C(1)       43.9787   14.4420   11.4515 C.ar      1 UNK         0.0000 
  14445 C(2)       45.0609   13.7561   12.0027 C.ar      1 UNK         0.0000 
  14446 C(3)       45.0679   13.4474   13.3599 C.ar      1 UNK         0.0000 
  14447 C(4)       43.9979   13.8100   14.1738 C.ar      1 UNK         0.0000 
  14448 C(5)       42.9023   14.4684   13.6167 C.ar      1 UNK         0.0000 
  14449 C(6)       42.8970   14.7813   12.2649 C.ar      1 UNK         0.0000 
  14450 C(7)       44.8700   14.9538    9.1951 C.2       1 UNK         0.0000 
  14451 C(8)       44.4292   15.3864    7.8224 C.3       1 UNK         0.0000 
  14452 H(1)       45.9014   13.4705   11.3824 H         1 UNK         0.0000 
  14453 H(2)       45.9187   12.9175   13.7701 H         1 UNK         0.0000 
  14454 H(3)       42.0591   14.7385   14.2404 H         1 UNK         0.0000 
  14455 H(4)       42.0463   15.2944   11.8334 H         1 UNK         0.0000 
  14456 H(5)       43.1891   13.5707   15.9075 H         1 UNK         0.0000 
  14457 H(6)       42.9533   15.0457    9.7711 H         1 UNK         0.0000 
  14458 H(7)       44.5074   14.5620    7.1624 H         1 UNK         0.0000 
  14459 H(8)       43.4324   15.7436    7.8021 H         1 UNK         0.0000 
  14460 H(9)       45.1097   16.1095    7.4544 H         1 UNK         0.0000 
  14461 O(1)       45.1953   10.1494   12.3169 O.3       1 UNK         0.0000 
  14462 O(2)       43.1975    3.9806   12.2011 O.2       1 UNK         0.0000 
  14463 N(1)       45.3786    4.5850   12.3888 N.am      1 UNK         0.0000 
  14464 C(1)       45.2792    5.9935   12.3376 C.ar      1 UNK         0.0000 
  14465 C(2)       44.1970    6.6817   11.7893 C.ar      1 UNK         0.0000 
  14466 C(3)       44.1900    8.0735   11.7858 C.ar      1 UNK         0.0000 
  14467 C(4)       45.2600    8.7881   12.3181 C.ar      1 UNK         0.0000 
  14468 C(5)       46.3556    8.1002   12.8383 C.ar      1 UNK         0.0000 
  14469 C(6)       46.3609    6.7126   12.8470 C.ar      1 UNK         0.0000 
  14470 C(7)       44.3879    3.6797   12.3420 C.2       1 UNK         0.0000 
  14471 C(8)       44.8287    2.2456   12.4630 C.3       1 UNK         0.0000 
  14472 H(1)       43.3565    6.1391   11.3746 H         1 UNK         0.0000 
  14473 H(2)       43.3392    8.5900   11.3587 H         1 UNK         0.0000 
  14474 H(3)       47.1988    8.6494   13.2386 H         1 UNK         0.0000 
  14475 H(4)       47.2116    6.1791   13.2530 H         1 UNK         0.0000 
  14476 H(5)       46.0687   10.5320   12.4649 H         1 UNK         0.0000 
  14477 H(6)       46.3046    4.2215   12.5580 H         1 UNK         0.0000 
  14478 H(7)       44.7505    1.7825   11.5138 H         1 UNK         0.0000 
  14479 H(8)       45.8255    2.1474   12.8070 H         1 UNK         0.0000 
  14480 H(9)       44.1482    1.7279   13.0878 H         1 UNK         0.0000 
  14481 O(1)       49.5292   18.3650   13.4097 O.3       1 UNK         0.0000 
  14482 O(2)       47.5314   17.1249   19.4537 O.2       1 UNK         0.0000 
  14483 N(1)       49.7125   17.0743   18.8228 N.am      1 UNK         0.0000 
  14484 C(1)       49.6131   17.4332   17.4599 C.ar      1 UNK         0.0000 
  14485 C(2)       48.5309   18.1191   16.9087 C.ar      1 UNK         0.0000 
  14486 C(3)       48.5239   18.4278   15.5516 C.ar      1 UNK         0.0000 
  14487 C(4)       49.5939   18.0652   14.7376 C.ar      1 UNK         0.0000 
  14488 C(5)       50.6895   17.4068   15.2947 C.ar      1 UNK         0.0000 
  14489 C(6)       50.6948   17.0939   16.6465 C.ar      1 UNK         0.0000 
  14490 C(7)       48.7218   16.9215   19.7163 C.2       1 UNK         0.0000 
  14491 C(8)       49.1626   16.4888   21.0890 C.3       1 UNK         0.0000 
  14492 H(1)       47.6904   18.4047   17.5290 H         1 UNK         0.0000 
  14493 H(2)       47.6731   18.9577   15.1413 H         1 UNK         0.0000 
  14494 H(3)       51.5327   17.1367   14.6710 H         1 UNK         0.0000 
  14495 H(4)       51.5454   16.5809   17.0780 H         1 UNK         0.0000 
  14496 H(5)       50.4026   18.3045   13.0039 H         1 UNK         0.0000 
  14497 H(6)       50.6385   16.8295   19.1403 H         1 UNK         0.0000 
  14498 H(7)       49.0843   17.3133   21.7490 H         1 UNK         0.0000 
  14499 H(8)       50.1594   16.1317   21.1093 H         1 UNK         0.0000 
  14500 H(9)       48.4821   15.7657   21.4570 H         1 UNK         0.0000 
  14501 O(1)       53.8827    7.0435   16.5945 O.3       1 UNK         0.0000 
  14502 O(2)       55.8805   13.2123   16.7103 O.2       1 UNK         0.0000 
  14503 N(1)       53.6994   12.6079   16.5226 N.am      1 UNK         0.0000 
  14504 C(1)       53.7988   11.1994   16.5738 C.ar      1 UNK         0.0000 
  14505 C(2)       54.8810   10.5112   17.1221 C.ar      1 UNK         0.0000 
  14506 C(3)       54.8880    9.1194   17.1257 C.ar      1 UNK         0.0000 
  14507 C(4)       53.8180    8.4048   16.5933 C.ar      1 UNK         0.0000 
  14508 C(5)       52.7224    9.0927   16.0731 C.ar      1 UNK         0.0000 
  14509 C(6)       52.7171   10.4803   16.0644 C.ar      1 UNK         0.0000 
  14510 C(7)       54.6901   13.5132   16.5694 C.2       1 UNK         0.0000 
  14511 C(8)       54.2493   14.9473   16.4484 C.3       1 UNK         0.0000 
  14512 H(1)       55.7215   11.0538   17.5368 H         1 UNK         0.0000 
  14513 H(2)       55.7388    8.6029   17.5527 H         1 UNK         0.0000 
  14514 H(3)       51.8792    8.5435   15.6728 H         1 UNK         0.0000 
  14515 H(4)       51.8665   11.0138   15.6585 H         1 UNK         0.0000 
  14516 H(5)       53.0093    6.6609   16.4465 H         1 UNK         0.0000 
  14517 H(6)       52.7734   12.9713   16.3534 H         1 UNK         0.0000 
  14518 H(7)       54.3275   15.4104   17.3976 H         1 UNK         0.0000 
  14519 H(8)       53.2525   15.0455   16.1044 H         1 UNK         0.0000 
  14520 H(9)       54.9298   15.4650   15.8236 H         1 UNK         0.0000 
  14521 O(1)       49.5488    4.5589   22.6641 O.3       1 UNK         0.0000 
  14522 O(2)       51.5466    5.7989   16.6201 O.2       1 UNK         0.0000 
  14523 N(1)       49.3655    5.8496   17.2510 N.am      1 UNK         0.0000 
  14524 C(1)       49.4649    5.4907   18.6139 C.ar      1 UNK         0.0000 
  14525 C(2)       50.5471    4.8048   19.1651 C.ar      1 UNK         0.0000 
  14526 C(3)       50.5541    4.4960   20.5223 C.ar      1 UNK         0.0000 
  14527 C(4)       49.4841    4.8587   21.3362 C.ar      1 UNK         0.0000 
  14528 C(5)       48.3885    5.5171   20.7791 C.ar      1 UNK         0.0000 
  14529 C(6)       48.3832    5.8299   19.4273 C.ar      1 UNK         0.0000 
  14530 C(7)       50.3562    6.0024   16.3575 C.2       1 UNK         0.0000 
  14531 C(8)       49.9154    6.4350   14.9848 C.3       1 UNK         0.0000 
  14532 H(1)       51.3876    4.5191   18.5448 H         1 UNK         0.0000 
  14533 H(2)       51.4049    3.9661   20.9325 H         1 UNK         0.0000 
  14534 H(3)       47.5453    5.7872   21.4028 H         1 UNK         0.0000 
  14535 H(4)       47.5326    6.3430   18.9958 H         1 UNK         0.0000 
  14536 H(5)       48.6754    4.6194   23.0699 H         1 UNK         0.0000 
  14537 H(6)       48.4395    6.0943   16.9335 H         1 UNK         0.0000 
  14538 H(7)       49.9937    5.6106   14.3248 H         1 UNK         0.0000 
  14539 H(8)       48.9186    6.7922   14.9645 H         1 UNK         0.0000 
  14540 H(9)       50.5959    7.1582   14.6168 H         1 UNK         0.0000 
  14541 O(1)       52.2723   15.8804   19.4793 O.3       1 UNK         0.0000 
  14542 O(2)       50.2745    9.7116   19.3635 O.2       1 UNK         0.0000 
  14543 N(1)       52.4556   10.3160   19.5512 N.am      1 UNK         0.0000 
  14544 C(1)       52.3562   11.7244   19.5000 C.ar      1 UNK         0.0000 
  14545 C(2)       51.2740   12.4126   18.9517 C.ar      1 UNK         0.0000 
  14546 C(3)       51.2670   13.8044   18.9482 C.ar      1 UNK         0.0000 
  14547 C(4)       52.3370   14.5191   19.4805 C.ar      1 UNK         0.0000 
  14548 C(5)       53.4326   13.8311   20.0007 C.ar      1 UNK         0.0000 
  14549 C(6)       53.4379   12.4436   20.0094 C.ar      1 UNK         0.0000 
  14550 C(7)       51.4649    9.4107   19.5044 C.2       1 UNK         0.0000 
  14551 C(8)       51.9057    7.9766   19.6254 C.3       1 UNK         0.0000 
  14552 H(1)       50.4335   11.8701   18.5370 H         1 UNK         0.0000 
  14553 H(2)       50.4162   14.3209   18.5211 H         1 UNK         0.0000 
  14554 H(3)       54.2758   14.3804   20.4010 H         1 UNK         0.0000 
  14555 H(4)       54.2886   11.9101   20.4154 H         1 UNK         0.0000 
  14556 H(5)       53.1457   16.2630   19.6273 H         1 UNK         0.0000 
  14557 H(6)       53.3816    9.9525   19.7204 H         1 UNK         0.0000 
  14558 H(7)       51.8275    7.5134   18.6762 H         1 UNK         0.0000 
  14559 H(8)       52.9025    7.8784   19.9694 H         1 UNK         0.0000 
  14560 H(9)       51.2252    7.4589   20.2502 H         1 UNK         0.0000 
  14561 O(1)       47.9384    9.4136   20.5721 O.3       1 UNK         0.0000 
  14562 O(2)       45.9406    8.1736   26.6161 O.2       1 UNK         0.0000 
  14563 N(1)       48.1217    8.1229   25.9852 N.am      1 UNK         0.0000 
  14564 C(1)       48.0223    8.4818   24.6223 C.ar      1 UNK         0.0000 
  14565 C(2)       46.9401    9.1677   24.0711 C.ar      1 UNK         0.0000 
  14566 C(3)       46.9331    9.4765   22.7140 C.ar      1 UNK         0.0000 
  14567 C(4)       48.0031    9.1138   21.9000 C.ar      1 UNK         0.0000 
  14568 C(5)       49.0987    8.4554   22.4571 C.ar      1 UNK         0.0000 
  14569 C(6)       49.1040    8.1426   23.8089 C.ar      1 UNK         0.0000 
  14570 C(7)       47.1310    7.9701   26.8787 C.2       1 UNK         0.0000 
  14571 C(8)       47.5718    7.5375   28.2514 C.3       1 UNK         0.0000 
  14572 H(1)       46.0996    9.4534   24.6914 H         1 UNK         0.0000 
  14573 H(2)       46.0823   10.0064   22.3037 H         1 UNK         0.0000 
  14574 H(3)       49.9419    8.1853   21.8334 H         1 UNK         0.0000 
  14575 H(4)       49.9547    7.6295   24.2404 H         1 UNK         0.0000 
  14576 H(5)       48.8119    9.3531   20.1663 H         1 UNK         0.0000 
  14577 H(6)       49.0477    7.8782   26.3027 H         1 UNK         0.0000 
  14578 H(7)       47.4936    8.3619   28.9114 H         1 UNK         0.0000 
  14579 H(8)       48.5686    7.1803   28.2717 H         1 UNK         0.0000 
  14580 H(9)       46.8913    6.8143   28.6194 H         1 UNK         0.0000 
  14581 O(1)       46.8057   12.7745   23.7569 O.3       1 UNK         0.0000 
  14582 O(2)       48.8035   18.9433   23.8727 O.2       1 UNK         0.0000 
  14583 N(1)       46.6224   18.3389   23.6850 N.am      1 UNK         0.0000 
  14584 C(1)       46.7218   16.9304   23.7362 C.ar      1 UNK         0.0000 
  14585 C(2)       47.8040   16.2422   24.2845 C.ar      1 UNK         0.0000 
  14586 C(3)       47.8110   14.8504   24.2881 C.ar      1 UNK         0.0000 
  14587 C(4)       46.7410   14.1358   23.7557 C.ar      1 UNK         0.0000 
  14588 C(5)       45.6454   14.8237   23.2355 C.ar      1 UNK         0.0000 
  14589 C(6)       45.6401   16.2112   23.2268 C.ar      1 UNK         0.0000 
  14590 C(7)       47.6131   19.2442   23.7318 C.2       1 UNK         0.0000 
  14591 C(8)       47.1723   20.6783   23.6108 C.3       1 UNK         0.0000 
  14592 H(1)       48.6445   16.7847   24.6992 H         1 UNK         0.0000 
  14593 H(2)       48.6618   14.3339   24.7151 H         1 UNK         0.0000 
  14594 H(3)       44.8022   14.2744   22.8352 H         1 UNK         0.0000 
  14595 H(4)       44.7894   16.7448   22.8209 H         1 UNK         0.0000 
  14596 H(5)       45.9323   12.3919   23.6089 H         1 UNK         0.0000 
  14597 H(6)       45.6964   18.7023   23.5158 H         1 UNK         0.0000 
  14598 H(7)       47.2505   21.1414   24.5600 H         1 UNK         0.0000 
  14599 H(8)       46.1755   20.7764   23.2668 H         1 UNK         0.0000 
  14600 H(9)       47.8528   21.1960   22.9860 H         1 UNK         0.0000 
  14601 O(1)       51.1396    7.7793    8.3393 O.3       1 UNK         0.0000 
  14602 O(2)       53.1374    9.0193    2.2953 O.2       1 UNK         0.0000 
  14603 N(1)       50.9563    9.0700    2.9262 N.am      1 UNK         0.0000 
  14604 C(1)       51.0557    8.7111    4.2891 C.ar      1 UNK         0.0000 
  14605 C(2)       52.1379    8.0252    4.8403 C.ar      1 UNK         0.0000 
  14606 C(3)       52.1449    7.7164    6.1975 C.ar      1 UNK         0.0000 
  14607 C(4)       51.0749    8.0791    7.0114 C.ar      1 UNK         0.0000 
  14608 C(5)       49.9793    8.7375    6.4543 C.ar      1 UNK         0.0000 
  14609 C(6)       49.9740    9.0503    5.1025 C.ar      1 UNK         0.0000 
  14610 C(7)       51.9470    9.2228    2.0327 C.2       1 UNK         0.0000 
  14611 C(8)       51.5062    9.6554    0.6600 C.3       1 UNK         0.0000 
  14612 H(1)       52.9784    7.7395    4.2200 H         1 UNK         0.0000 
  14613 H(2)       52.9957    7.1865    6.6077 H         1 UNK         0.0000 
  14614 H(3)       49.1361    9.0076    7.0780 H         1 UNK         0.0000 
  14615 H(4)       49.1233    9.5634    4.6710 H         1 UNK         0.0000 
  14616 H(5)       50.2661    7.8398    8.7451 H         1 UNK         0.0000 
  14617 H(6)       50.0303    9.3147    2.6087 H         1 UNK         0.0000 
  14618 H(7)       51.5844    8.8310    0.0000 H         1 UNK         0.0000 
  14619 H(8)       50.5094   10.0126    0.6397 H         1 UNK         0.0000 
  14620 H(9)       52.1867   10.3786    0.2920 H         1 UNK         0.0000 
  14621 O(1)       53.8631   19.1008    5.1545 O.3       1 UNK         0.0000 
  14622 O(2)       51.8653   12.9320    5.0387 O.2       1 UNK         0.0000 
  14623 N(1)       54.0464   13.5364    5.2264 N.am      1 UNK         0.0000 
  14624 C(1)       53.9470   14.9448    5.1752 C.ar      1 UNK         0.0000 
  14625 C(2)       52.8648   15.6330    4.6269 C.ar      1 UNK         0.0000 
  14626 C(3)       52.8578   17.0248    4.6234 C.ar      1 UNK         0.0000 
  14627 C(4)       53.9278   17.7395    5.1557 C.ar      1 UNK         0.0000 
  14628 C(5)       55.0234   17.0515    5.6759 C.ar      1 UNK         0.0000 
  14629 C(6)       55.0287   15.6640    5.6846 C.ar      1 UNK         0.0000 
  14630 C(7)       53.0556   12.6311    5.1796 C.2       1 UNK         0.0000 
  14631 C(8)       53.4965   11.1969    5.3006 C.3       1 UNK         0.0000 
  14632 H(1)       52.0243   15.0905    4.2122 H         1 UNK         0.0000 
  14633 H(2)       52.0070   17.5413    4.1963 H         1 UNK         0.0000 
  14634 H(3)       55.8666   17.6008    6.0762 H         1 UNK         0.0000 
  14635 H(4)       55.8793   15.1305    6.0906 H         1 UNK         0.0000 
  14636 H(5)       54.7365   19.4834    5.3025 H         1 UNK         0.0000 
  14637 H(6)       54.9724   13.1729    5.3956 H         1 UNK         0.0000 
  14638 H(7)       53.4182   10.7338    4.3514 H         1 UNK         0.0000 
  14639 H(8)       54.4933   11.0988    5.6446 H         1 UNK         0.0000 
  14640 H(9)       52.8160   10.6793    5.9254 H         1 UNK         0.0000 
  14641 O(1)       51.1200   27.3164    6.2473 O.3       1 UNK         0.0000 
  14642 O(2)       49.1222   26.0763   12.2913 O.2       1 UNK         0.0000 
  14643 N(1)       51.3033   26.0256   11.6604 N.am      1 UNK         0.0000 
  14644 C(1)       51.2039   26.3846   10.2975 C.ar      1 UNK         0.0000 
  14645 C(2)       50.1217   27.0704    9.7463 C.ar      1 UNK         0.0000 
  14646 C(3)       50.1147   27.3792    8.3892 C.ar      1 UNK         0.0000 
  14647 C(4)       51.1847   27.0165    7.5752 C.ar      1 UNK         0.0000 
  14648 C(5)       52.2803   26.3582    8.1323 C.ar      1 UNK         0.0000 
  14649 C(6)       52.2856   26.0453    9.4841 C.ar      1 UNK         0.0000 
  14650 C(7)       50.3125   25.8728   12.5539 C.2       1 UNK         0.0000 
  14651 C(8)       50.7534   25.4402   13.9266 C.3       1 UNK         0.0000 
  14652 H(1)       49.2812   27.3561   10.3666 H         1 UNK         0.0000 
  14653 H(2)       49.2639   27.9091    7.9789 H         1 UNK         0.0000 
  14654 H(3)       53.1235   26.0881    7.5086 H         1 UNK         0.0000 
  14655 H(4)       53.1362   25.5322    9.9156 H         1 UNK         0.0000 
  14656 H(5)       51.9934   27.2558    5.8415 H         1 UNK         0.0000 
  14657 H(6)       52.2293   25.7809   11.9779 H         1 UNK         0.0000 
  14658 H(7)       50.6751   26.2646   14.5866 H         1 UNK         0.0000 
  14659 H(8)       51.7502   25.0830   13.9469 H         1 UNK         0.0000 
  14660 H(9)       50.0729   24.7171   14.2946 H         1 UNK         0.0000 
  14661 O(1)       55.4735   15.9949    9.4321 O.3       1 UNK         0.0000 
  14662 O(2)       57.4713   22.1637    9.5479 O.2       1 UNK         0.0000 
  14663 N(1)       55.2901   21.5592    9.3602 N.am      1 UNK         0.0000 
  14664 C(1)       55.3896   20.1508    9.4114 C.ar      1 UNK         0.0000 
  14665 C(2)       56.4718   19.4626    9.9597 C.ar      1 UNK         0.0000 
  14666 C(3)       56.4788   18.0708    9.9633 C.ar      1 UNK         0.0000 
  14667 C(4)       55.4088   17.3562    9.4309 C.ar      1 UNK         0.0000 
  14668 C(5)       54.3132   18.0441    8.9107 C.ar      1 UNK         0.0000 
  14669 C(6)       54.3078   19.4316    8.9020 C.ar      1 UNK         0.0000 
  14670 C(7)       56.2809   22.4646    9.4070 C.2       1 UNK         0.0000 
  14671 C(8)       55.8401   23.8987    9.2860 C.3       1 UNK         0.0000 
  14672 H(1)       57.3123   20.0051   10.3744 H         1 UNK         0.0000 
  14673 H(2)       57.3296   17.5543   10.3903 H         1 UNK         0.0000 
  14674 H(3)       53.4700   17.4948    8.5104 H         1 UNK         0.0000 
  14675 H(4)       53.4572   19.9652    8.4961 H         1 UNK         0.0000 
  14676 H(5)       54.6000   15.6123    9.2841 H         1 UNK         0.0000 
  14677 H(6)       54.3642   21.9227    9.1910 H         1 UNK         0.0000 
  14678 H(7)       55.9183   24.3618   10.2352 H         1 UNK         0.0000 
  14679 H(8)       54.8433   23.9968    8.9420 H         1 UNK         0.0000 
  14680 H(9)       56.5205   24.4164    8.6612 H         1 UNK         0.0000 
  14681 O(1)       45.6534   28.1926   15.5017 O.3       1 UNK         0.0000 
  14682 O(2)       47.6512   29.4326    9.4577 O.2       1 UNK         0.0000 
  14683 N(1)       45.4700   29.4833   10.0886 N.am      1 UNK         0.0000 
  14684 C(1)       45.5695   29.1244   11.4515 C.ar      1 UNK         0.0000 
  14685 C(2)       46.6516   28.4385   12.0027 C.ar      1 UNK         0.0000 
  14686 C(3)       46.6587   28.1297   13.3599 C.ar      1 UNK         0.0000 
  14687 C(4)       45.5887   28.4924   14.1738 C.ar      1 UNK         0.0000 
  14688 C(5)       44.4930   29.1508   13.6167 C.ar      1 UNK         0.0000 
  14689 C(6)       44.4877   29.4636   12.2649 C.ar      1 UNK         0.0000 
  14690 C(7)       46.4608   29.6361    9.1951 C.2       1 UNK         0.0000 
  14691 C(8)       46.0200   30.0687    7.8224 C.3       1 UNK         0.0000 
  14692 H(1)       47.4922   28.1528   11.3824 H         1 UNK         0.0000 
  14693 H(2)       47.5095   27.5998   13.7701 H         1 UNK         0.0000 
  14694 H(3)       43.6499   29.4209   14.2404 H         1 UNK         0.0000 
  14695 H(4)       43.6371   29.9767   11.8334 H         1 UNK         0.0000 
  14696 H(5)       44.7799   28.2531   15.9075 H         1 UNK         0.0000 
  14697 H(6)       44.5441   29.7280    9.7711 H         1 UNK         0.0000 
  14698 H(7)       46.0982   29.2443    7.1624 H         1 UNK         0.0000 
  14699 H(8)       45.0232   30.4259    7.8021 H         1 UNK         0.0000 
  14700 H(9)       46.7004   30.7919    7.4544 H         1 UNK         0.0000 
  14701 O(1)       46.7861   24.8317   12.3169 O.3       1 UNK         0.0000 
  14702 O(2)       44.7883   18.6629   12.2011 O.2       1 UNK         0.0000 
  14703 N(1)       46.9694   19.2673   12.3888 N.am      1 UNK         0.0000 
  14704 C(1)       46.8700   20.6758   12.3376 C.ar      1 UNK         0.0000 
  14705 C(2)       45.7878   21.3640   11.7893 C.ar      1 UNK         0.0000 
  14706 C(3)       45.7808   22.7558   11.7858 C.ar      1 UNK         0.0000 
  14707 C(4)       46.8508   23.4704   12.3181 C.ar      1 UNK         0.0000 
  14708 C(5)       47.9464   22.7825   12.8383 C.ar      1 UNK         0.0000 
  14709 C(6)       47.9517   21.3950   12.8470 C.ar      1 UNK         0.0000 
  14710 C(7)       45.9786   18.3620   12.3420 C.2       1 UNK         0.0000 
  14711 C(8)       46.4195   16.9279   12.4630 C.3       1 UNK         0.0000 
  14712 H(1)       44.9473   20.8215   11.3746 H         1 UNK         0.0000 
  14713 H(2)       44.9300   23.2723   11.3587 H         1 UNK         0.0000 
  14714 H(3)       48.7896   23.3317   13.2386 H         1 UNK         0.0000 
  14715 H(4)       48.8023   20.8614   13.2530 H         1 UNK         0.0000 
  14716 H(5)       47.6595   25.2143   12.4649 H         1 UNK         0.0000 
  14717 H(6)       47.8954   18.9039   12.5580 H         1 UNK         0.0000 
  14718 H(7)       46.3412   16.4648   11.5138 H         1 UNK         0.0000 
  14719 H(8)       47.4163   16.8298   12.8070 H         1 UNK         0.0000 
  14720 H(9)       45.7390   16.4102   13.0878 H         1 UNK         0.0000 
  14721 O(1)       51.1200   33.0473   13.4097 O.3       1 UNK         0.0000 
  14722 O(2)       49.1222   31.8072   19.4537 O.2       1 UNK         0.0000 
  14723 N(1)       51.3033   31.7566   18.8228 N.am      1 UNK         0.0000 
  14724 C(1)       51.2039   32.1155   17.4599 C.ar      1 UNK         0.0000 
  14725 C(2)       50.1217   32.8014   16.9087 C.ar      1 UNK         0.0000 
  14726 C(3)       50.1147   33.1102   15.5516 C.ar      1 UNK         0.0000 
  14727 C(4)       51.1847   32.7475   14.7376 C.ar      1 UNK         0.0000 
  14728 C(5)       52.2803   32.0891   15.2947 C.ar      1 UNK         0.0000 
  14729 C(6)       52.2856   31.7763   16.6465 C.ar      1 UNK         0.0000 
  14730 C(7)       50.3125   31.6038   19.7163 C.2       1 UNK         0.0000 
  14731 C(8)       50.7534   31.1711   21.0890 C.3       1 UNK         0.0000 
  14732 H(1)       49.2812   33.0871   17.5290 H         1 UNK         0.0000 
  14733 H(2)       49.2639   33.6401   15.1413 H         1 UNK         0.0000 
  14734 H(3)       53.1235   31.8190   14.6710 H         1 UNK         0.0000 
  14735 H(4)       53.1362   31.2632   17.0780 H         1 UNK         0.0000 
  14736 H(5)       51.9934   32.9868   13.0039 H         1 UNK         0.0000 
  14737 H(6)       52.2293   31.5119   19.1403 H         1 UNK         0.0000 
  14738 H(7)       50.6751   31.9956   21.7490 H         1 UNK         0.0000 
  14739 H(8)       51.7502   30.8140   21.1093 H         1 UNK         0.0000 
  14740 H(9)       50.0729   30.4480   21.4570 H         1 UNK         0.0000 
  14741 O(1)       55.4735   21.7258   16.5945 O.3       1 UNK         0.0000 
  14742 O(2)       57.4713   27.8946   16.7103 O.2       1 UNK         0.0000 
  14743 N(1)       55.2901   27.2902   16.5226 N.am      1 UNK         0.0000 
  14744 C(1)       55.3896   25.8818   16.5738 C.ar      1 UNK         0.0000 
  14745 C(2)       56.4718   25.1936   17.1221 C.ar      1 UNK         0.0000 
  14746 C(3)       56.4788   23.8017   17.1257 C.ar      1 UNK         0.0000 
  14747 C(4)       55.4088   23.0871   16.5933 C.ar      1 UNK         0.0000 
  14748 C(5)       54.3132   23.7751   16.0731 C.ar      1 UNK         0.0000 
  14749 C(6)       54.3078   25.1626   16.0644 C.ar      1 UNK         0.0000 
  14750 C(7)       56.2809   28.1955   16.5694 C.2       1 UNK         0.0000 
  14751 C(8)       55.8401   29.6296   16.4484 C.3       1 UNK         0.0000 
  14752 H(1)       57.3123   25.7361   17.5368 H         1 UNK         0.0000 
  14753 H(2)       57.3296   23.2853   17.5527 H         1 UNK         0.0000 
  14754 H(3)       53.4700   23.2258   15.6728 H         1 UNK         0.0000 
  14755 H(4)       53.4572   25.6961   15.6585 H         1 UNK         0.0000 
  14756 H(5)       54.6000   21.3432   16.4465 H         1 UNK         0.0000 
  14757 H(6)       54.3642   27.6537   16.3534 H         1 UNK         0.0000 
  14758 H(7)       55.9183   30.0928   17.3976 H         1 UNK         0.0000 
  14759 H(8)       54.8433   29.7278   16.1044 H         1 UNK         0.0000 
  14760 H(9)       56.5205   30.1473   15.8236 H         1 UNK         0.0000 
  14761 O(1)       51.1396   19.2412   22.6641 O.3       1 UNK         0.0000 
  14762 O(2)       53.1374   20.4813   16.6201 O.2       1 UNK         0.0000 
  14763 N(1)       50.9563   20.5319   17.2510 N.am      1 UNK         0.0000 
  14764 C(1)       51.0557   20.1730   18.6139 C.ar      1 UNK         0.0000 
  14765 C(2)       52.1379   19.4871   19.1651 C.ar      1 UNK         0.0000 
  14766 C(3)       52.1449   19.1784   20.5223 C.ar      1 UNK         0.0000 
  14767 C(4)       51.0749   19.5410   21.3362 C.ar      1 UNK         0.0000 
  14768 C(5)       49.9793   20.1994   20.7791 C.ar      1 UNK         0.0000 
  14769 C(6)       49.9740   20.5123   19.4273 C.ar      1 UNK         0.0000 
  14770 C(7)       51.9470   20.6847   16.3575 C.2       1 UNK         0.0000 
  14771 C(8)       51.5062   21.1174   14.9848 C.3       1 UNK         0.0000 
  14772 H(1)       52.9784   19.2015   18.5448 H         1 UNK         0.0000 
  14773 H(2)       52.9957   18.6484   20.9325 H         1 UNK         0.0000 
  14774 H(3)       49.1361   20.4695   21.4028 H         1 UNK         0.0000 
  14775 H(4)       49.1233   21.0253   18.9958 H         1 UNK         0.0000 
  14776 H(5)       50.2661   19.3017   23.0699 H         1 UNK         0.0000 
  14777 H(6)       50.0303   20.7767   16.9335 H         1 UNK         0.0000 
  14778 H(7)       51.5844   20.2929   14.3248 H         1 UNK         0.0000 
  14779 H(8)       50.5094   21.4745   14.9645 H         1 UNK         0.0000 
  14780 H(9)       52.1867   21.8405   14.6168 H         1 UNK         0.0000 
  14781 O(1)       53.8631   30.5627   19.4793 O.3       1 UNK         0.0000 
  14782 O(2)       51.8653   24.3939   19.3635 O.2       1 UNK         0.0000 
  14783 N(1)       54.0464   24.9983   19.5512 N.am      1 UNK         0.0000 
  14784 C(1)       53.9470   26.4068   19.5000 C.ar      1 UNK         0.0000 
  14785 C(2)       52.8648   27.0950   18.9517 C.ar      1 UNK         0.0000 
  14786 C(3)       52.8578   28.4868   18.9482 C.ar      1 UNK         0.0000 
  14787 C(4)       53.9278   29.2014   19.4805 C.ar      1 UNK         0.0000 
  14788 C(5)       55.0234   28.5135   20.0007 C.ar      1 UNK         0.0000 
  14789 C(6)       55.0287   27.1259   20.0094 C.ar      1 UNK         0.0000 
  14790 C(7)       53.0556   24.0930   19.5044 C.2       1 UNK         0.0000 
  14791 C(8)       53.4965   22.6589   19.6254 C.3       1 UNK         0.0000 
  14792 H(1)       52.0243   26.5524   18.5370 H         1 UNK         0.0000 
  14793 H(2)       52.0070   29.0033   18.5211 H         1 UNK         0.0000 
  14794 H(3)       55.8666   29.0627   20.4010 H         1 UNK         0.0000 
  14795 H(4)       55.8793   26.5924   20.4154 H         1 UNK         0.0000 
  14796 H(5)       54.7365   30.9453   19.6273 H         1 UNK         0.0000 
  14797 H(6)       54.9724   24.6348   19.7204 H         1 UNK         0.0000 
  14798 H(7)       53.4182   22.1958   18.6762 H         1 UNK         0.0000 
  14799 H(8)       54.4933   22.5607   19.9694 H         1 UNK         0.0000 
  14800 H(9)       52.8160   22.1412   20.2502 H         1 UNK         0.0000 
  14801 O(1)       49.5292   24.0960   20.5721 O.3       1 UNK         0.0000 
  14802 O(2)       47.5314   22.8559   26.6161 O.2       1 UNK         0.0000 
  14803 N(1)       49.7125   22.8052   25.9852 N.am      1 UNK         0.0000 
  14804 C(1)       49.6131   23.1642   24.6223 C.ar      1 UNK         0.0000 
  14805 C(2)       48.5309   23.8500   24.0711 C.ar      1 UNK         0.0000 
  14806 C(3)       48.5239   24.1588   22.7140 C.ar      1 UNK         0.0000 
  14807 C(4)       49.5939   23.7962   21.9000 C.ar      1 UNK         0.0000 
  14808 C(5)       50.6895   23.1378   22.4571 C.ar      1 UNK         0.0000 
  14809 C(6)       50.6948   22.8249   23.8089 C.ar      1 UNK         0.0000 
  14810 C(7)       48.7218   22.6524   26.8787 C.2       1 UNK         0.0000 
  14811 C(8)       49.1626   22.2198   28.2514 C.3       1 UNK         0.0000 
  14812 H(1)       47.6904   24.1357   24.6914 H         1 UNK         0.0000 
  14813 H(2)       47.6731   24.6887   22.3037 H         1 UNK         0.0000 
  14814 H(3)       51.5327   22.8677   21.8334 H         1 UNK         0.0000 
  14815 H(4)       51.5454   22.3118   24.2404 H         1 UNK         0.0000 
  14816 H(5)       50.4026   24.0354   20.1663 H         1 UNK         0.0000 
  14817 H(6)       50.6385   22.5605   26.3027 H         1 UNK         0.0000 
  14818 H(7)       49.0843   23.0442   28.9114 H         1 UNK         0.0000 
  14819 H(8)       50.1594   21.8626   28.2717 H         1 UNK         0.0000 
  14820 H(9)       48.4821   21.4967   28.6194 H         1 UNK         0.0000 
  14821 O(1)       48.3965   27.4568   23.7569 O.3       1 UNK         0.0000 
  14822 O(2)       50.3943   33.6256   23.8727 O.2       1 UNK         0.0000 
  14823 N(1)       48.2131   33.0212   23.6850 N.am      1 UNK         0.0000 
  14824 C(1)       48.3126   31.6127   23.7362 C.ar      1 UNK         0.0000 
  14825 C(2)       49.3948   30.9245   24.2845 C.ar      1 UNK         0.0000 
  14826 C(3)       49.4018   29.5327   24.2881 C.ar      1 UNK         0.0000 
  14827 C(4)       48.3318   28.8181   23.7557 C.ar      1 UNK         0.0000 
  14828 C(5)       47.2362   29.5060   23.2355 C.ar      1 UNK         0.0000 
  14829 C(6)       47.2308   30.8936   23.2268 C.ar      1 UNK         0.0000 
  14830 C(7)       49.2039   33.9265   23.7318 C.2       1 UNK         0.0000 
  14831 C(8)       48.7631   35.3606   23.6108 C.3       1 UNK         0.0000 
  14832 H(1)       50.2353   31.4671   24.6992 H         1 UNK         0.0000 
  14833 H(2)       50.2526   29.0162   24.7151 H         1 UNK         0.0000 
  14834 H(3)       46.3930   28.9568   22.8352 H         1 UNK         0.0000 
  14835 H(4)       46.3802   31.4271   22.8209 H         1 UNK         0.0000 
  14836 H(5)       47.5230   27.0742   23.6089 H         1 UNK         0.0000 
  14837 H(6)       47.2872   33.3846   23.5158 H         1 UNK         0.0000 
  14838 H(7)       48.8413   35.8237   24.5600 H         1 UNK         0.0000 
  14839 H(8)       47.7663   35.4588   23.2668 H         1 UNK         0.0000 
  14840 H(9)       49.4435   35.8783   22.9860 H         1 UNK         0.0000 
  14841 O(1)       52.7304   22.4616    8.3393 O.3       1 UNK         0.0000 
  14842 O(2)       54.7282   23.7017    2.2953 O.2       1 UNK         0.0000 
  14843 N(1)       52.5470   23.7523    2.9262 N.am      1 UNK         0.0000 
  14844 C(1)       52.6465   23.3934    4.2891 C.ar      1 UNK         0.0000 
  14845 C(2)       53.7286   22.7075    4.8403 C.ar      1 UNK         0.0000 
  14846 C(3)       53.7357   22.3988    6.1975 C.ar      1 UNK         0.0000 
  14847 C(4)       52.6657   22.7614    7.0114 C.ar      1 UNK         0.0000 
  14848 C(5)       51.5700   23.4198    6.4543 C.ar      1 UNK         0.0000 
  14849 C(6)       51.5647   23.7327    5.1025 C.ar      1 UNK         0.0000 
  14850 C(7)       53.5378   23.9051    2.0327 C.2       1 UNK         0.0000 
  14851 C(8)       53.0970   24.3378    0.6600 C.3       1 UNK         0.0000 
  14852 H(1)       54.5692   22.4219    4.2200 H         1 UNK         0.0000 
  14853 H(2)       54.5865   21.8688    6.6077 H         1 UNK         0.0000 
  14854 H(3)       50.7269   23.6899    7.0780 H         1 UNK         0.0000 
  14855 H(4)       50.7141   24.2457    4.6710 H         1 UNK         0.0000 
  14856 H(5)       51.8569   22.5221    8.7451 H         1 UNK         0.0000 
  14857 H(6)       51.6211   23.9971    2.6087 H         1 UNK         0.0000 
  14858 H(7)       53.1752   23.5133    0.0000 H         1 UNK         0.0000 
  14859 H(8)       52.1002   24.6949    0.6397 H         1 UNK         0.0000 
  14860 H(9)       53.7774   25.0609    0.2920 H         1 UNK         0.0000 
  14861 O(1)       55.4539   33.7831    5.1545 O.3       1 UNK         0.0000 
  14862 O(2)       53.4561   27.6143    5.0387 O.2       1 UNK         0.0000 
  14863 N(1)       55.6372   28.2187    5.2264 N.am      1 UNK         0.0000 
  14864 C(1)       55.5378   29.6272    5.1752 C.ar      1 UNK         0.0000 
  14865 C(2)       54.4556   30.3154    4.6269 C.ar      1 UNK         0.0000 
  14866 C(3)       54.4486   31.7072    4.6234 C.ar      1 UNK         0.0000 
  14867 C(4)       55.5186   32.4218    5.1557 C.ar      1 UNK         0.0000 
  14868 C(5)       56.6142   31.7339    5.6759 C.ar      1 UNK         0.0000 
  14869 C(6)       56.6195   30.3463    5.6846 C.ar      1 UNK         0.0000 
  14870 C(7)       54.6464   27.3134    5.1796 C.2       1 UNK         0.0000 
  14871 C(8)       55.0873   25.8793    5.3006 C.3       1 UNK         0.0000 
  14872 H(1)       53.6151   29.7728    4.2122 H         1 UNK         0.0000 
  14873 H(2)       53.5978   32.2236    4.1963 H         1 UNK         0.0000 
  14874 H(3)       57.4574   32.2831    6.0762 H         1 UNK         0.0000 
  14875 H(4)       57.4701   29.8128    6.0906 H         1 UNK         0.0000 
  14876 H(5)       56.3273   34.1657    5.3025 H         1 UNK         0.0000 
  14877 H(6)       56.5632   27.8552    5.3956 H         1 UNK         0.0000 
  14878 H(7)       55.0090   25.4162    4.3514 H         1 UNK         0.0000 
  14879 H(8)       56.0841   25.7811    5.6446 H         1 UNK         0.0000 
  14880 H(9)       54.4068   25.3616    5.9254 H         1 UNK         0.0000 
  14881 O(1)       52.7108   41.9987    6.2473 O.3       1 UNK         0.0000 
  14882 O(2)       50.7130   40.7586   12.2913 O.2       1 UNK         0.0000 
  14883 N(1)       52.8941   40.7080   11.6604 N.am      1 UNK         0.0000 
  14884 C(1)       52.7946   41.0669   10.2975 C.ar      1 UNK         0.0000 
  14885 C(2)       51.7125   41.7528    9.7463 C.ar      1 UNK         0.0000 
  14886 C(3)       51.7055   42.0615    8.3892 C.ar      1 UNK         0.0000 
  14887 C(4)       52.7755   41.6989    7.5752 C.ar      1 UNK         0.0000 
  14888 C(5)       53.8711   41.0405    8.1323 C.ar      1 UNK         0.0000 
  14889 C(6)       53.8764   40.7276    9.4841 C.ar      1 UNK         0.0000 
  14890 C(7)       51.9033   40.5551   12.5539 C.2       1 UNK         0.0000 
  14891 C(8)       52.3442   40.1225   13.9266 C.3       1 UNK         0.0000 
  14892 H(1)       50.8720   42.0384   10.3666 H         1 UNK         0.0000 
  14893 H(2)       50.8546   42.5914    7.9789 H         1 UNK         0.0000 
  14894 H(3)       54.7143   40.7704    7.5086 H         1 UNK         0.0000 
  14895 H(4)       54.7270   40.2146    9.9156 H         1 UNK         0.0000 
  14896 H(5)       53.5842   41.9382    5.8415 H         1 UNK         0.0000 
  14897 H(6)       53.8201   40.4632   11.9779 H         1 UNK         0.0000 
  14898 H(7)       52.2659   40.9470   14.5866 H         1 UNK         0.0000 
  14899 H(8)       53.3410   39.7654   13.9469 H         1 UNK         0.0000 
  14900 H(9)       51.6637   39.3994   14.2946 H         1 UNK         0.0000 
  14901 O(1)       57.0643   30.6772    9.4321 O.3       1 UNK         0.0000 
  14902 O(2)       59.0621   36.8460    9.5479 O.2       1 UNK         0.0000 
  14903 N(1)       56.8809   36.2416    9.3602 N.am      1 UNK         0.0000 
  14904 C(1)       56.9804   34.8331    9.4114 C.ar      1 UNK         0.0000 
  14905 C(2)       58.0625   34.1449    9.9597 C.ar      1 UNK         0.0000 
  14906 C(3)       58.0696   32.7531    9.9633 C.ar      1 UNK         0.0000 
  14907 C(4)       56.9995   32.0385    9.4309 C.ar      1 UNK         0.0000 
  14908 C(5)       55.9039   32.7264    8.9107 C.ar      1 UNK         0.0000 
  14909 C(6)       55.8986   34.1140    8.9020 C.ar      1 UNK         0.0000 
  14910 C(7)       57.8717   37.1469    9.4070 C.2       1 UNK         0.0000 
  14911 C(8)       57.4309   38.5810    9.2860 C.3       1 UNK         0.0000 
  14912 H(1)       58.9031   34.6875   10.3744 H         1 UNK         0.0000 
  14913 H(2)       58.9204   32.2366   10.3903 H         1 UNK         0.0000 
  14914 H(3)       55.0608   32.1772    8.5104 H         1 UNK         0.0000 
  14915 H(4)       55.0480   34.6475    8.4961 H         1 UNK         0.0000 
  14916 H(5)       56.1908   30.2946    9.2841 H         1 UNK         0.0000 
  14917 H(6)       55.9550   36.6050    9.1910 H         1 UNK         0.0000 
  14918 H(7)       57.5091   39.0441   10.2352 H         1 UNK         0.0000 
  14919 H(8)       56.4341   38.6792    8.9420 H         1 UNK         0.0000 
  14920 H(9)       58.1113   39.0987    8.6612 H         1 UNK         0.0000 
  14921 O(1)       47.2442   42.8749   15.5017 O.3       1 UNK         0.0000 
  14922 O(2)       49.2420   44.1150    9.4577 O.2       1 UNK         0.0000 
  14923 N(1)       47.0608   44.1656   10.0886 N.am      1 UNK         0.0000 
  14924 C(1)       47.1603   43.8067   11.4515 C.ar      1 UNK         0.0000 
  14925 C(2)       48.2424   43.1208   12.0027 C.ar      1 UNK         0.0000 
  14926 C(3)       48.2495   42.8120   13.3599 C.ar      1 UNK         0.0000 
  14927 C(4)       47.1794   43.1747   14.1738 C.ar      1 UNK         0.0000 
  14928 C(5)       46.0838   43.8331   13.6167 C.ar      1 UNK         0.0000 
  14929 C(6)       46.0785   44.1460   12.2649 C.ar      1 UNK         0.0000 
  14930 C(7)       48.0516   44.3184    9.1951 C.2       1 UNK         0.0000 
  14931 C(8)       47.6107   44.7511    7.8224 C.3       1 UNK         0.0000 
  14932 H(1)       49.0830   42.8352   11.3824 H         1 UNK         0.0000 
  14933 H(2)       49.1003   42.2821   13.7701 H         1 UNK         0.0000 
  14934 H(3)       45.2407   44.1032   14.2404 H         1 UNK         0.0000 
  14935 H(4)       45.2279   44.6590   11.8334 H         1 UNK         0.0000 
  14936 H(5)       46.3707   42.9354   15.9075 H         1 UNK         0.0000 
  14937 H(6)       46.1349   44.4103    9.7711 H         1 UNK         0.0000 
  14938 H(7)       47.6890   43.9266    7.1624 H         1 UNK         0.0000 
  14939 H(8)       46.6140   45.1082    7.8021 H         1 UNK         0.0000 
  14940 H(9)       48.2912   45.4742    7.4544 H         1 UNK         0.0000 
  14941 O(1)       48.3769   39.5141   12.3169 O.3       1 UNK         0.0000 
  14942 O(2)       46.3791   33.3453   12.2011 O.2       1 UNK         0.0000 
  14943 N(1)       48.5602   33.9497   12.3888 N.am      1 UNK         0.0000 
  14944 C(1)       48.4607   35.3581   12.3376 C.ar      1 UNK         0.0000 
  14945 C(2)       47.3786   36.0463   11.7893 C.ar      1 UNK         0.0000 
  14946 C(3)       47.3716   37.4381   11.7858 C.ar      1 UNK         0.0000 
  14947 C(4)       48.4416   38.1527   12.3181 C.ar      1 UNK         0.0000 
  14948 C(5)       49.5372   37.4648   12.8383 C.ar      1 UNK         0.0000 
  14949 C(6)       49.5425   36.0773   12.8470 C.ar      1 UNK         0.0000 
  14950 C(7)       47.5694   33.0444   12.3420 C.2       1 UNK         0.0000 
  14951 C(8)       48.0103   31.6102   12.4630 C.3       1 UNK         0.0000 
  14952 H(1)       46.5381   35.5038   11.3746 H         1 UNK         0.0000 
  14953 H(2)       46.5208   37.9546   11.3587 H         1 UNK         0.0000 
  14954 H(3)       50.3804   38.0141   13.2386 H         1 UNK         0.0000 
  14955 H(4)       50.3931   35.5438   13.2530 H         1 UNK         0.0000 
  14956 H(5)       49.2503   39.8967   12.4649 H         1 UNK         0.0000 
  14957 H(6)       49.4862   33.5862   12.5580 H         1 UNK         0.0000 
  14958 H(7)       47.9320   31.1471   11.5138 H         1 UNK         0.0000 
  14959 H(8)       49.0071   31.5121   12.8070 H         1 UNK         0.0000 
  14960 H(9)       47.3298   31.0926   13.0878 H         1 UNK         0.0000 
  14961 O(1)       52.7108   47.7297   13.4097 O.3       1 UNK         0.0000 
  14962 O(2)       50.7130   46.4896   19.4537 O.2       1 UNK         0.0000 
  14963 N(1)       52.8941   46.4389   18.8228 N.am      1 UNK         0.0000 
  14964 C(1)       52.7946   46.7979   17.4599 C.ar      1 UNK         0.0000 
  14965 C(2)       51.7125   47.4837   16.9087 C.ar      1 UNK         0.0000 
  14966 C(3)       51.7055   47.7925   15.5516 C.ar      1 UNK         0.0000 
  14967 C(4)       52.7755   47.4298   14.7376 C.ar      1 UNK         0.0000 
  14968 C(5)       53.8711   46.7715   15.2947 C.ar      1 UNK         0.0000 
  14969 C(6)       53.8764   46.4586   16.6465 C.ar      1 UNK         0.0000 
  14970 C(7)       51.9033   46.2861   19.7163 C.2       1 UNK         0.0000 
  14971 C(8)       52.3442   45.8535   21.0890 C.3       1 UNK         0.0000 
  14972 H(1)       50.8720   47.7694   17.5290 H         1 UNK         0.0000 
  14973 H(2)       50.8546   48.3224   15.1413 H         1 UNK         0.0000 
  14974 H(3)       54.7143   46.5014   14.6710 H         1 UNK         0.0000 
  14975 H(4)       54.7270   45.9455   17.0780 H         1 UNK         0.0000 
  14976 H(5)       53.5842   47.6691   13.0039 H         1 UNK         0.0000 
  14977 H(6)       53.8201   46.1942   19.1403 H         1 UNK         0.0000 
  14978 H(7)       52.2659   46.6779   21.7490 H         1 UNK         0.0000 
  14979 H(8)       53.3410   45.4963   21.1093 H         1 UNK         0.0000 
  14980 H(9)       51.6637   45.1304   21.4570 H         1 UNK         0.0000 
  14981 O(1)       57.0643   36.4082   16.5945 O.3       1 UNK         0.0000 
  14982 O(2)       59.0621   42.5769   16.7103 O.2       1 UNK         0.0000 
  14983 N(1)       56.8809   41.9725   16.5226 N.am      1 UNK         0.0000 
  14984 C(1)       56.9804   40.5641   16.5738 C.ar      1 UNK         0.0000 
  14985 C(2)       58.0625   39.8759   17.1221 C.ar      1 UNK         0.0000 
  14986 C(3)       58.0696   38.4841   17.1257 C.ar      1 UNK         0.0000 
  14987 C(4)       56.9995   37.7695   16.5933 C.ar      1 UNK         0.0000 
  14988 C(5)       55.9039   38.4574   16.0731 C.ar      1 UNK         0.0000 
  14989 C(6)       55.8986   39.8449   16.0644 C.ar      1 UNK         0.0000 
  14990 C(7)       57.8717   42.8779   16.5694 C.2       1 UNK         0.0000 
  14991 C(8)       57.4309   44.3120   16.4484 C.3       1 UNK         0.0000 
  14992 H(1)       58.9031   40.4184   17.5368 H         1 UNK         0.0000 
  14993 H(2)       58.9204   37.9676   17.5527 H         1 UNK         0.0000 
  14994 H(3)       55.0608   37.9081   15.6728 H         1 UNK         0.0000 
  14995 H(4)       55.0480   40.3784   15.6585 H         1 UNK         0.0000 
  14996 H(5)       56.1908   36.0256   16.4465 H         1 UNK         0.0000 
  14997 H(6)       55.9550   42.3360   16.3534 H         1 UNK         0.0000 
  14998 H(7)       57.5091   44.7751   17.3976 H         1 UNK         0.0000 
  14999 H(8)       56.4341   44.4101   16.1044 H         1 UNK         0.0000 
  15000 H(9)       58.1113   44.8296   15.8236 H         1 UNK         0.0000 
  15001 O(1)       52.7304   33.9235   22.6641 O.3       1 UNK         0.0000 
  15002 O(2)       54.7282   35.1636   16.6201 O.2       1 UNK         0.0000 
  15003 N(1)       52.5470   35.2142   17.2510 N.am      1 UNK         0.0000 
  15004 C(1)       52.6465   34.8553   18.6139 C.ar      1 UNK         0.0000 
  15005 C(2)       53.7286   34.1694   19.1651 C.ar      1 UNK         0.0000 
  15006 C(3)       53.7357   33.8607   20.5223 C.ar      1 UNK         0.0000 
  15007 C(4)       52.6657   34.2233   21.3362 C.ar      1 UNK         0.0000 
  15008 C(5)       51.5700   34.8817   20.7791 C.ar      1 UNK         0.0000 
  15009 C(6)       51.5647   35.1946   19.4273 C.ar      1 UNK         0.0000 
  15010 C(7)       53.5378   35.3671   16.3575 C.2       1 UNK         0.0000 
  15011 C(8)       53.0970   35.7997   14.9848 C.3       1 UNK         0.0000 
  15012 H(1)       54.5692   33.8838   18.5448 H         1 UNK         0.0000 
  15013 H(2)       54.5865   33.3308   20.9325 H         1 UNK         0.0000 
  15014 H(3)       50.7269   35.1518   21.4028 H         1 UNK         0.0000 
  15015 H(4)       50.7141   35.7077   18.9958 H         1 UNK         0.0000 
  15016 H(5)       51.8569   33.9840   23.0699 H         1 UNK         0.0000 
  15017 H(6)       51.6211   35.4590   16.9335 H         1 UNK         0.0000 
  15018 H(7)       53.1752   34.9753   14.3248 H         1 UNK         0.0000 
  15019 H(8)       52.1002   36.1568   14.9645 H         1 UNK         0.0000 
  15020 H(9)       53.7774   36.5228   14.6168 H         1 UNK         0.0000 
  15021 O(1)       55.4539   45.2450   19.4793 O.3       1 UNK         0.0000 
  15022 O(2)       53.4561   39.0762   19.3635 O.2       1 UNK         0.0000 
  15023 N(1)       55.6372   39.6806   19.5512 N.am      1 UNK         0.0000 
  15024 C(1)       55.5378   41.0891   19.5000 C.ar      1 UNK         0.0000 
  15025 C(2)       54.4556   41.7773   18.9517 C.ar      1 UNK         0.0000 
  15026 C(3)       54.4486   43.1691   18.9482 C.ar      1 UNK         0.0000 
  15027 C(4)       55.5186   43.8837   19.4805 C.ar      1 UNK         0.0000 
  15028 C(5)       56.6142   43.1958   20.0007 C.ar      1 UNK         0.0000 
  15029 C(6)       56.6195   41.8082   20.0094 C.ar      1 UNK         0.0000 
  15030 C(7)       54.6464   38.7753   19.5044 C.2       1 UNK         0.0000 
  15031 C(8)       55.0873   37.3412   19.6254 C.3       1 UNK         0.0000 
  15032 H(1)       53.6151   41.2348   18.5370 H         1 UNK         0.0000 
  15033 H(2)       53.5978   43.6856   18.5211 H         1 UNK         0.0000 
  15034 H(3)       57.4574   43.7450   20.4010 H         1 UNK         0.0000 
  15035 H(4)       57.4701   41.2747   20.4154 H         1 UNK         0.0000 
  15036 H(5)       56.3273   45.6276   19.6273 H         1 UNK         0.0000 
  15037 H(6)       56.5632   39.3172   19.7204 H         1 UNK         0.0000 
  15038 H(7)       55.0090   36.8781   18.6762 H         1 UNK         0.0000 
  15039 H(8)       56.0841   37.2431   19.9694 H         1 UNK         0.0000 
  15040 H(9)       54.4068   36.8235   20.2502 H         1 UNK         0.0000 
  15041 O(1)       51.1200   38.7783   20.5721 O.3       1 UNK         0.0000 
  15042 O(2)       49.1222   37.5382   26.6161 O.2       1 UNK         0.0000 
  15043 N(1)       51.3033   37.4876   25.9852 N.am      1 UNK         0.0000 
  15044 C(1)       51.2039   37.8465   24.6223 C.ar      1 UNK         0.0000 
  15045 C(2)       50.1217   38.5324   24.0711 C.ar      1 UNK         0.0000 
  15046 C(3)       50.1147   38.8411   22.7140 C.ar      1 UNK         0.0000 
  15047 C(4)       51.1847   38.4785   21.9000 C.ar      1 UNK         0.0000 
  15048 C(5)       52.2803   37.8201   22.4571 C.ar      1 UNK         0.0000 
  15049 C(6)       52.2856   37.5072   23.8089 C.ar      1 UNK         0.0000 
  15050 C(7)       50.3125   37.3347   26.8787 C.2       1 UNK         0.0000 
  15051 C(8)       50.7534   36.9021   28.2514 C.3       1 UNK         0.0000 
  15052 H(1)       49.2812   38.8180   24.6914 H         1 UNK         0.0000 
  15053 H(2)       49.2639   39.3710   22.3037 H         1 UNK         0.0000 
  15054 H(3)       53.1235   37.5500   21.8334 H         1 UNK         0.0000 
  15055 H(4)       53.1362   36.9942   24.2404 H         1 UNK         0.0000 
  15056 H(5)       51.9934   38.7178   20.1663 H         1 UNK         0.0000 
  15057 H(6)       52.2293   37.2428   26.3027 H         1 UNK         0.0000 
  15058 H(7)       50.6751   37.7266   28.9114 H         1 UNK         0.0000 
  15059 H(8)       51.7502   36.5450   28.2717 H         1 UNK         0.0000 
  15060 H(9)       50.0729   36.1790   28.6194 H         1 UNK         0.0000 
  15061 O(1)       49.9873   42.1391   23.7569 O.3       1 UNK         0.0000 
  15062 O(2)       51.9851   48.3079   23.8727 O.2       1 UNK         0.0000 
  15063 N(1)       49.8039   47.7035   23.6850 N.am      1 UNK         0.0000 
  15064 C(1)       49.9034   46.2951   23.7362 C.ar      1 UNK         0.0000 
  15065 C(2)       50.9855   45.6068   24.2845 C.ar      1 UNK         0.0000 
  15066 C(3)       50.9926   44.2150   24.2881 C.ar      1 UNK         0.0000 
  15067 C(4)       49.9225   43.5004   23.7557 C.ar      1 UNK         0.0000 
  15068 C(5)       48.8269   44.1884   23.2355 C.ar      1 UNK         0.0000 
  15069 C(6)       48.8216   45.5759   23.2268 C.ar      1 UNK         0.0000 
  15070 C(7)       50.7947   48.6088   23.7318 C.2       1 UNK         0.0000 
  15071 C(8)       50.3539   50.0429   23.6108 C.3       1 UNK         0.0000 
  15072 H(1)       51.8261   46.1494   24.6992 H         1 UNK         0.0000 
  15073 H(2)       51.8434   43.6986   24.7151 H         1 UNK         0.0000 
  15074 H(3)       47.9838   43.6391   22.8352 H         1 UNK         0.0000 
  15075 H(4)       47.9710   46.1094   22.8209 H         1 UNK         0.0000 
  15076 H(5)       49.1138   41.7565   23.6089 H         1 UNK         0.0000 
  15077 H(6)       48.8780   48.0670   23.5158 H         1 UNK         0.0000 
  15078 H(7)       50.4321   50.5060   24.5600 H         1 UNK         0.0000 
  15079 H(8)       49.3571   50.1411   23.2668 H         1 UNK         0.0000 
  15080 H(9)       51.0343   50.5606   22.9860 H         1 UNK         0.0000 
  15081 O(1)       54.3212   37.1439    8.3393 O.3       1 UNK         0.0000 
  15082 O(2)       56.3190   38.3840    2.2953 O.2       1 UNK         0.0000 
  15083 N(1)       54.1378   38.4346    2.9262 N.am      1 UNK         0.0000 
  15084 C(1)       54.2373   38.0757    4.2891 C.ar      1 UNK         0.0000 
  15085 C(2)       55.3194   37.3898    4.8403 C.ar      1 UNK         0.0000 
  15086 C(3)       55.3265   37.0811    6.1975 C.ar      1 UNK         0.0000 
  15087 C(4)       54.2564   37.4437    7.0114 C.ar      1 UNK         0.0000 
  15088 C(5)       53.1608   38.1021    6.4543 C.ar      1 UNK         0.0000 
  15089 C(6)       53.1555   38.4150    5.1025 C.ar      1 UNK         0.0000 
  15090 C(7)       55.1286   38.5875    2.0327 C.2       1 UNK         0.0000 
  15091 C(8)       54.6877   39.0201    0.6600 C.3       1 UNK         0.0000 
  15092 H(1)       56.1600   37.1042    4.2200 H         1 UNK         0.0000 
  15093 H(2)       56.1773   36.5512    6.6077 H         1 UNK         0.0000 
  15094 H(3)       52.3177   38.3722    7.0780 H         1 UNK         0.0000 
  15095 H(4)       52.3049   38.9281    4.6710 H         1 UNK         0.0000 
  15096 H(5)       53.4477   37.2044    8.7451 H         1 UNK         0.0000 
  15097 H(6)       53.2119   38.6794    2.6087 H         1 UNK         0.0000 
  15098 H(7)       54.7660   38.1956    0.0000 H         1 UNK         0.0000 
  15099 H(8)       53.6910   39.3772    0.6397 H         1 UNK         0.0000 
  15100 H(9)       55.3682   39.7432    0.2920 H         1 UNK         0.0000 
  15101 O(1)       57.0447   48.4654    5.1545 O.3       1 UNK         0.0000 
  15102 O(2)       55.0468   42.2966    5.0387 O.2       1 UNK         0.0000 
  15103 N(1)       57.2280   42.9010    5.2264 N.am      1 UNK         0.0000 
  15104 C(1)       57.1285   44.3095    5.1752 C.ar      1 UNK         0.0000 
  15105 C(2)       56.0464   44.9977    4.6269 C.ar      1 UNK         0.0000 
  15106 C(3)       56.0393   46.3895    4.6234 C.ar      1 UNK         0.0000 
  15107 C(4)       57.1094   47.1041    5.1557 C.ar      1 UNK         0.0000 
  15108 C(5)       58.2050   46.4162    5.6759 C.ar      1 UNK         0.0000 
  15109 C(6)       58.2103   45.0286    5.6846 C.ar      1 UNK         0.0000 
  15110 C(7)       56.2372   41.9957    5.1796 C.2       1 UNK         0.0000 
  15111 C(8)       56.6781   40.5616    5.3006 C.3       1 UNK         0.0000 
  15112 H(1)       55.2058   44.4552    4.2122 H         1 UNK         0.0000 
  15113 H(2)       55.1885   46.9060    4.1963 H         1 UNK         0.0000 
  15114 H(3)       59.0481   46.9654    6.0762 H         1 UNK         0.0000 
  15115 H(4)       59.0609   44.4951    6.0906 H         1 UNK         0.0000 
  15116 H(5)       57.9181   48.8480    5.3025 H         1 UNK         0.0000 
  15117 H(6)       58.1540   42.5376    5.3956 H         1 UNK         0.0000 
  15118 H(7)       56.5998   40.0985    4.3514 H         1 UNK         0.0000 
  15119 H(8)       57.6748   40.4635    5.6446 H         1 UNK         0.0000 
  15120 H(9)       55.9976   40.0439    5.9254 H         1 UNK         0.0000 
  15121 O(1)       54.3016   56.6810    6.2473 O.3       1 UNK         0.0000 
  15122 O(2)       52.3037   55.4409   12.2913 O.2       1 UNK         0.0000 
  15123 N(1)       54.4849   55.3903   11.6604 N.am      1 UNK         0.0000 
  15124 C(1)       54.3854   55.7492   10.2975 C.ar      1 UNK         0.0000 
  15125 C(2)       53.3033   56.4351    9.7463 C.ar      1 UNK         0.0000 
  15126 C(3)       53.2962   56.7439    8.3892 C.ar      1 UNK         0.0000 
  15127 C(4)       54.3663   56.3812    7.5752 C.ar      1 UNK         0.0000 
  15128 C(5)       55.4619   55.7228    8.1323 C.ar      1 UNK         0.0000 
  15129 C(6)       55.4672   55.4100    9.4841 C.ar      1 UNK         0.0000 
  15130 C(7)       53.4941   55.2375   12.5539 C.2       1 UNK         0.0000 
  15131 C(8)       53.9350   54.8048   13.9266 C.3       1 UNK         0.0000 
  15132 H(1)       52.4627   56.7208   10.3666 H         1 UNK         0.0000 
  15133 H(2)       52.4454   57.2738    7.9789 H         1 UNK         0.0000 
  15134 H(3)       56.3050   55.4527    7.5086 H         1 UNK         0.0000 
  15135 H(4)       56.3178   54.8969    9.9156 H         1 UNK         0.0000 
  15136 H(5)       55.1750   56.6205    5.8415 H         1 UNK         0.0000 
  15137 H(6)       55.4108   55.1456   11.9779 H         1 UNK         0.0000 
  15138 H(7)       53.8567   55.6293   14.5866 H         1 UNK         0.0000 
  15139 H(8)       54.9317   54.4477   13.9469 H         1 UNK         0.0000 
  15140 H(9)       53.2545   54.0817   14.2946 H         1 UNK         0.0000 
  15141 O(1)       58.6550   45.3595    9.4321 O.3       1 UNK         0.0000 
  15142 O(2)       60.6529   51.5283    9.5479 O.2       1 UNK         0.0000 
  15143 N(1)       58.4717   50.9239    9.3602 N.am      1 UNK         0.0000 
  15144 C(1)       58.5712   49.5155    9.4114 C.ar      1 UNK         0.0000 
  15145 C(2)       59.6533   48.8272    9.9597 C.ar      1 UNK         0.0000 
  15146 C(3)       59.6604   47.4354    9.9633 C.ar      1 UNK         0.0000 
  15147 C(4)       58.5903   46.7208    9.4309 C.ar      1 UNK         0.0000 
  15148 C(5)       57.4947   47.4088    8.9107 C.ar      1 UNK         0.0000 
  15149 C(6)       57.4894   48.7963    8.9020 C.ar      1 UNK         0.0000 
  15150 C(7)       59.4625   51.8292    9.4070 C.2       1 UNK         0.0000 
  15151 C(8)       59.0216   53.2633    9.2860 C.3       1 UNK         0.0000 
  15152 H(1)       60.4939   49.3698   10.3744 H         1 UNK         0.0000 
  15153 H(2)       60.5112   46.9190   10.3903 H         1 UNK         0.0000 
  15154 H(3)       56.6516   46.8595    8.5104 H         1 UNK         0.0000 
  15155 H(4)       56.6388   49.3298    8.4961 H         1 UNK         0.0000 
  15156 H(5)       57.7816   44.9769    9.2841 H         1 UNK         0.0000 
  15157 H(6)       57.5457   51.2874    9.1910 H         1 UNK         0.0000 
  15158 H(7)       59.0999   53.7264   10.2352 H         1 UNK         0.0000 
  15159 H(8)       58.0249   53.3615    8.9420 H         1 UNK         0.0000 
  15160 H(9)       59.7021   53.7810    8.6612 H         1 UNK         0.0000 
  15161 O(1)       48.8349   57.5572   15.5017 O.3       1 UNK         0.0000 
  15162 O(2)       50.8327   58.7973    9.4577 O.2       1 UNK         0.0000 
  15163 N(1)       48.6516   58.8479   10.0886 N.am      1 UNK         0.0000 
  15164 C(1)       48.7511   58.4890   11.4515 C.ar      1 UNK         0.0000 
  15165 C(2)       49.8332   57.8031   12.0027 C.ar      1 UNK         0.0000 
  15166 C(3)       49.8402   57.4944   13.3599 C.ar      1 UNK         0.0000 
  15167 C(4)       48.7702   57.8570   14.1738 C.ar      1 UNK         0.0000 
  15168 C(5)       47.6746   58.5154   13.6167 C.ar      1 UNK         0.0000 
  15169 C(6)       47.6693   58.8283   12.2649 C.ar      1 UNK         0.0000 
  15170 C(7)       49.6424   59.0008    9.1951 C.2       1 UNK         0.0000 
  15171 C(8)       49.2015   59.4334    7.8224 C.3       1 UNK         0.0000 
  15172 H(1)       50.6738   57.5175   11.3824 H         1 UNK         0.0000 
  15173 H(2)       50.6911   56.9645   13.7701 H         1 UNK         0.0000 
  15174 H(3)       46.8314   58.7855   14.2404 H         1 UNK         0.0000 
  15175 H(4)       46.8187   59.3414   11.8334 H         1 UNK         0.0000 
  15176 H(5)       47.9615   57.6177   15.9075 H         1 UNK         0.0000 
  15177 H(6)       47.7256   59.0927    9.7711 H         1 UNK         0.0000 
  15178 H(7)       49.2798   58.6089    7.1624 H         1 UNK         0.0000 
  15179 H(8)       48.2047   59.7905    7.8021 H         1 UNK         0.0000 
  15180 H(9)       49.8820   60.1565    7.4544 H         1 UNK         0.0000 
  15181 O(1)       49.9677   54.1964   12.3169 O.3       1 UNK         0.0000 
  15182 O(2)       47.9698   48.0276   12.2011 O.2       1 UNK         0.0000 
  15183 N(1)       50.1510   48.6320   12.3888 N.am      1 UNK         0.0000 
  15184 C(1)       50.0515   50.0404   12.3376 C.ar      1 UNK         0.0000 
  15185 C(2)       48.9694   50.7287   11.7893 C.ar      1 UNK         0.0000 
  15186 C(3)       48.9623   52.1205   11.7858 C.ar      1 UNK         0.0000 
  15187 C(4)       50.0324   52.8351   12.3181 C.ar      1 UNK         0.0000 
  15188 C(5)       51.1280   52.1472   12.8383 C.ar      1 UNK         0.0000 
  15189 C(6)       51.1333   50.7596   12.8470 C.ar      1 UNK         0.0000 
  15190 C(7)       49.1602   47.7267   12.3420 C.2       1 UNK         0.0000 
  15191 C(8)       49.6011   46.2926   12.4630 C.3       1 UNK         0.0000 
  15192 H(1)       48.1288   50.1861   11.3746 H         1 UNK         0.0000 
  15193 H(2)       48.1115   52.6369   11.3587 H         1 UNK         0.0000 
  15194 H(3)       51.9711   52.6964   13.2386 H         1 UNK         0.0000 
  15195 H(4)       51.9839   50.2261   13.2530 H         1 UNK         0.0000 
  15196 H(5)       50.8411   54.5790   12.4649 H         1 UNK         0.0000 
  15197 H(6)       51.0770   48.2685   12.5580 H         1 UNK         0.0000 
  15198 H(7)       49.5228   45.8295   11.5138 H         1 UNK         0.0000 
  15199 H(8)       50.5978   46.1944   12.8070 H         1 UNK         0.0000 
  15200 H(9)       48.9206   45.7749   13.0878 H         1 UNK         0.0000 
  15201 O(1)       54.3016   62.4120   13.4097 O.3       1 UNK         0.0000 
  15202 O(2)       52.3037   61.1719   19.4537 O.2       1 UNK         0.0000 
  15203 N(1)       54.4849   61.1213   18.8228 N.am      1 UNK         0.0000 
  15204 C(1)       54.3854   61.4802   17.4599 C.ar      1 UNK         0.0000 
  15205 C(2)       53.3033   62.1661   16.9087 C.ar      1 UNK         0.0000 
  15206 C(3)       53.2962   62.4748   15.5516 C.ar      1 UNK         0.0000 
  15207 C(4)       54.3663   62.1122   14.7376 C.ar      1 UNK         0.0000 
  15208 C(5)       55.4619   61.4538   15.2947 C.ar      1 UNK         0.0000 
  15209 C(6)       55.4672   61.1409   16.6465 C.ar      1 UNK         0.0000 
  15210 C(7)       53.4941   60.9684   19.7163 C.2       1 UNK         0.0000 
  15211 C(8)       53.9350   60.5358   21.0890 C.3       1 UNK         0.0000 
  15212 H(1)       52.4627   62.4517   17.5290 H         1 UNK         0.0000 
  15213 H(2)       52.4454   63.0047   15.1413 H         1 UNK         0.0000 
  15214 H(3)       56.3050   61.1837   14.6710 H         1 UNK         0.0000 
  15215 H(4)       56.3178   60.6279   17.0780 H         1 UNK         0.0000 
  15216 H(5)       55.1750   62.3515   13.0039 H         1 UNK         0.0000 
  15217 H(6)       55.4108   60.8765   19.1403 H         1 UNK         0.0000 
  15218 H(7)       53.8567   61.3603   21.7490 H         1 UNK         0.0000 
  15219 H(8)       54.9317   60.1787   21.1093 H         1 UNK         0.0000 
  15220 H(9)       53.2545   59.8127   21.4570 H         1 UNK         0.0000 
  15221 O(1)       58.6550   51.0905   16.5945 O.3       1 UNK         0.0000 
  15222 O(2)       60.6529   57.2593   16.7103 O.2       1 UNK         0.0000 
  15223 N(1)       58.4717   56.6549   16.5226 N.am      1 UNK         0.0000 
  15224 C(1)       58.5712   55.2464   16.5738 C.ar      1 UNK         0.0000 
  15225 C(2)       59.6533   54.5582   17.1221 C.ar      1 UNK         0.0000 
  15226 C(3)       59.6604   53.1664   17.1257 C.ar      1 UNK         0.0000 
  15227 C(4)       58.5903   52.4518   16.5933 C.ar      1 UNK         0.0000 
  15228 C(5)       57.4947   53.1397   16.0731 C.ar      1 UNK         0.0000 
  15229 C(6)       57.4894   54.5273   16.0644 C.ar      1 UNK         0.0000 
  15230 C(7)       59.4625   57.5602   16.5694 C.2       1 UNK         0.0000 
  15231 C(8)       59.0216   58.9943   16.4484 C.3       1 UNK         0.0000 
  15232 H(1)       60.4939   55.1008   17.5368 H         1 UNK         0.0000 
  15233 H(2)       60.5112   52.6499   17.5527 H         1 UNK         0.0000 
  15234 H(3)       56.6516   52.5905   15.6728 H         1 UNK         0.0000 
  15235 H(4)       56.6388   55.0608   15.6585 H         1 UNK         0.0000 
  15236 H(5)       57.7816   50.7079   16.4465 H         1 UNK         0.0000 
  15237 H(6)       57.5457   57.0183   16.3534 H         1 UNK         0.0000 
  15238 H(7)       59.0999   59.4574   17.3976 H         1 UNK         0.0000 
  15239 H(8)       58.0249   59.0924   16.1044 H         1 UNK         0.0000 
  15240 H(9)       59.7021   59.5120   15.8236 H         1 UNK         0.0000 
  15241 O(1)       54.3212   48.6059   22.6641 O.3       1 UNK         0.0000 
  15242 O(2)       56.3190   49.8459   16.6201 O.2       1 UNK         0.0000 
  15243 N(1)       54.1378   49.8966   17.2510 N.am      1 UNK         0.0000 
  15244 C(1)       54.2373   49.5377   18.6139 C.ar      1 UNK         0.0000 
  15245 C(2)       55.3194   48.8518   19.1651 C.ar      1 UNK         0.0000 
  15246 C(3)       55.3265   48.5430   20.5223 C.ar      1 UNK         0.0000 
  15247 C(4)       54.2564   48.9057   21.3362 C.ar      1 UNK         0.0000 
  15248 C(5)       53.1608   49.5641   20.7791 C.ar      1 UNK         0.0000 
  15249 C(6)       53.1555   49.8769   19.4273 C.ar      1 UNK         0.0000 
  15250 C(7)       55.1286   50.0494   16.3575 C.2       1 UNK         0.0000 
  15251 C(8)       54.6877   50.4820   14.9848 C.3       1 UNK         0.0000 
  15252 H(1)       56.1600   48.5661   18.5448 H         1 UNK         0.0000 
  15253 H(2)       56.1773   48.0131   20.9325 H         1 UNK         0.0000 
  15254 H(3)       52.3177   49.8341   21.4028 H         1 UNK         0.0000 
  15255 H(4)       52.3049   50.3900   18.9958 H         1 UNK         0.0000 
  15256 H(5)       53.4477   48.6664   23.0699 H         1 UNK         0.0000 
  15257 H(6)       53.2119   50.1413   16.9335 H         1 UNK         0.0000 
  15258 H(7)       54.7660   49.6576   14.3248 H         1 UNK         0.0000 
  15259 H(8)       53.6910   50.8392   14.9645 H         1 UNK         0.0000 
  15260 H(9)       55.3682   51.2051   14.6168 H         1 UNK         0.0000 
  15261 O(1)       57.0447   59.9274   19.4793 O.3       1 UNK         0.0000 
  15262 O(2)       55.0468   53.7586   19.3635 O.2       1 UNK         0.0000 
  15263 N(1)       57.2280   54.3630   19.5512 N.am      1 UNK         0.0000 
  15264 C(1)       57.1285   55.7714   19.5000 C.ar      1 UNK         0.0000 
  15265 C(2)       56.0464   56.4596   18.9517 C.ar      1 UNK         0.0000 
  15266 C(3)       56.0393   57.8514   18.9482 C.ar      1 UNK         0.0000 
  15267 C(4)       57.1094   58.5660   19.4805 C.ar      1 UNK         0.0000 
  15268 C(5)       58.2050   57.8781   20.0007 C.ar      1 UNK         0.0000 
  15269 C(6)       58.2103   56.4906   20.0094 C.ar      1 UNK         0.0000 
  15270 C(7)       56.2372   53.4577   19.5044 C.2       1 UNK         0.0000 
  15271 C(8)       56.6781   52.0235   19.6254 C.3       1 UNK         0.0000 
  15272 H(1)       55.2058   55.9171   18.5370 H         1 UNK         0.0000 
  15273 H(2)       55.1885   58.3679   18.5211 H         1 UNK         0.0000 
  15274 H(3)       59.0481   58.4274   20.4010 H         1 UNK         0.0000 
  15275 H(4)       59.0609   55.9571   20.4154 H         1 UNK         0.0000 
  15276 H(5)       57.9181   60.3100   19.6273 H         1 UNK         0.0000 
  15277 H(6)       58.1540   53.9995   19.7204 H         1 UNK         0.0000 
  15278 H(7)       56.5998   51.5604   18.6762 H         1 UNK         0.0000 
  15279 H(8)       57.6748   51.9254   19.9694 H         1 UNK         0.0000 
  15280 H(9)       55.9976   51.5059   20.2502 H         1 UNK         0.0000 
  15281 O(1)       52.7108   53.4606   20.5721 O.3       1 UNK         0.0000 
  15282 O(2)       50.7130   52.2205   26.6161 O.2       1 UNK         0.0000 
  15283 N(1)       52.8941   52.1699   25.9852 N.am      1 UNK         0.0000 
  15284 C(1)       52.7946   52.5288   24.6223 C.ar      1 UNK         0.0000 
  15285 C(2)       51.7125   53.2147   24.0711 C.ar      1 UNK         0.0000 
  15286 C(3)       51.7055   53.5235   22.7140 C.ar      1 UNK         0.0000 
  15287 C(4)       52.7755   53.1608   21.9000 C.ar      1 UNK         0.0000 
  15288 C(5)       53.8711   52.5024   22.4571 C.ar      1 UNK         0.0000 
  15289 C(6)       53.8764   52.1896   23.8089 C.ar      1 UNK         0.0000 
  15290 C(7)       51.9033   52.0171   26.8787 C.2       1 UNK         0.0000 
  15291 C(8)       52.3442   51.5844   28.2514 C.3       1 UNK         0.0000 
  15292 H(1)       50.8720   53.5004   24.6914 H         1 UNK         0.0000 
  15293 H(2)       50.8546   54.0534   22.3037 H         1 UNK         0.0000 
  15294 H(3)       54.7143   52.2323   21.8334 H         1 UNK         0.0000 
  15295 H(4)       54.7270   51.6765   24.2404 H         1 UNK         0.0000 
  15296 H(5)       53.5842   53.4001   20.1663 H         1 UNK         0.0000 
  15297 H(6)       53.8201   51.9252   26.3027 H         1 UNK         0.0000 
  15298 H(7)       52.2659   52.4089   28.9114 H         1 UNK         0.0000 
  15299 H(8)       53.3410   51.2273   28.2717 H         1 UNK         0.0000 
  15300 H(9)       51.6637   50.8613   28.6194 H         1 UNK         0.0000 
  15301 O(1)       51.5780   56.8215   23.7569 O.3       1 UNK         0.0000 
  15302 O(2)       53.5759   62.9902   23.8727 O.2       1 UNK         0.0000 
  15303 N(1)       51.3947   62.3858   23.6850 N.am      1 UNK         0.0000 
  15304 C(1)       51.4942   60.9774   23.7362 C.ar      1 UNK         0.0000 
  15305 C(2)       52.5763   60.2892   24.2845 C.ar      1 UNK         0.0000 
  15306 C(3)       52.5834   58.8974   24.2881 C.ar      1 UNK         0.0000 
  15307 C(4)       51.5133   58.1828   23.7557 C.ar      1 UNK         0.0000 
  15308 C(5)       50.4177   58.8707   23.2355 C.ar      1 UNK         0.0000 
  15309 C(6)       50.4124   60.2582   23.2268 C.ar      1 UNK         0.0000 
  15310 C(7)       52.3855   63.2911   23.7318 C.2       1 UNK         0.0000 
  15311 C(8)       51.9446   64.7253   23.6108 C.3       1 UNK         0.0000 
  15312 H(1)       53.4169   60.8317   24.6992 H         1 UNK         0.0000 
  15313 H(2)       53.4342   58.3809   24.7151 H         1 UNK         0.0000 
  15314 H(3)       49.5746   58.3214   22.8352 H         1 UNK         0.0000 
  15315 H(4)       49.5618   60.7917   22.8209 H         1 UNK         0.0000 
  15316 H(5)       50.7046   56.4389   23.6089 H         1 UNK         0.0000 
  15317 H(6)       50.4687   62.7493   23.5158 H         1 UNK         0.0000 
  15318 H(7)       52.0229   65.1884   24.5600 H         1 UNK         0.0000 
  15319 H(8)       50.9479   64.8234   23.2668 H         1 UNK         0.0000 
  15320 H(9)       52.6251   65.2429   22.9860 H         1 UNK         0.0000 
  15321 O(1)       55.9119   51.8263    8.3393 O.3       1 UNK         0.0000 
  15322 O(2)       57.9098   53.0663    2.2953 O.2       1 UNK         0.0000 
  15323 N(1)       55.7286   53.1170    2.9262 N.am      1 UNK         0.0000 
  15324 C(1)       55.8281   52.7581    4.2891 C.ar      1 UNK         0.0000 
  15325 C(2)       56.9102   52.0722    4.8403 C.ar      1 UNK         0.0000 
  15326 C(3)       56.9172   51.7634    6.1975 C.ar      1 UNK         0.0000 
  15327 C(4)       55.8472   52.1261    7.0114 C.ar      1 UNK         0.0000 
  15328 C(5)       54.7516   52.7845    6.4543 C.ar      1 UNK         0.0000 
  15329 C(6)       54.7463   53.0973    5.1025 C.ar      1 UNK         0.0000 
  15330 C(7)       56.7194   53.2698    2.0327 C.2       1 UNK         0.0000 
  15331 C(8)       56.2785   53.7024    0.6600 C.3       1 UNK         0.0000 
  15332 H(1)       57.7508   51.7865    4.2200 H         1 UNK         0.0000 
  15333 H(2)       57.7681   51.2335    6.6077 H         1 UNK         0.0000 
  15334 H(3)       53.9084   53.0545    7.0780 H         1 UNK         0.0000 
  15335 H(4)       53.8957   53.6104    4.6710 H         1 UNK         0.0000 
  15336 H(5)       55.0385   51.8868    8.7451 H         1 UNK         0.0000 
  15337 H(6)       54.8026   53.3617    2.6087 H         1 UNK         0.0000 
  15338 H(7)       56.3568   52.8780    0.0000 H         1 UNK         0.0000 
  15339 H(8)       55.2817   54.0596    0.6397 H         1 UNK         0.0000 
  15340 H(9)       56.9590   54.4255    0.2920 H         1 UNK         0.0000 
  15341 O(1)       58.6354   63.1478    5.1545 O.3       1 UNK         0.0000 
  15342 O(2)       56.6376   56.9790    5.0387 O.2       1 UNK         0.0000 
  15343 N(1)       58.8188   57.5834    5.2264 N.am      1 UNK         0.0000 
  15344 C(1)       58.7193   58.9918    5.1752 C.ar      1 UNK         0.0000 
  15345 C(2)       57.6372   59.6800    4.6269 C.ar      1 UNK         0.0000 
  15346 C(3)       57.6301   61.0718    4.6234 C.ar      1 UNK         0.0000 
  15347 C(4)       58.7002   61.7864    5.1557 C.ar      1 UNK         0.0000 
  15348 C(5)       59.7958   61.0985    5.6759 C.ar      1 UNK         0.0000 
  15349 C(6)       59.8011   59.7110    5.6846 C.ar      1 UNK         0.0000 
  15350 C(7)       57.8280   56.6781    5.1796 C.2       1 UNK         0.0000 
  15351 C(8)       58.2689   55.2439    5.3006 C.3       1 UNK         0.0000 
  15352 H(1)       56.7966   59.1375    4.2122 H         1 UNK         0.0000 
  15353 H(2)       56.7793   61.5883    4.1963 H         1 UNK         0.0000 
  15354 H(3)       60.6389   61.6478    6.0762 H         1 UNK         0.0000 
  15355 H(4)       60.6517   59.1775    6.0906 H         1 UNK         0.0000 
  15356 H(5)       59.5089   63.5304    5.3025 H         1 UNK         0.0000 
  15357 H(6)       59.7447   57.2199    5.3956 H         1 UNK         0.0000 
  15358 H(7)       58.1906   54.7808    4.3514 H         1 UNK         0.0000 
  15359 H(8)       59.2656   55.1458    5.6446 H         1 UNK         0.0000 
  15360 H(9)       57.5884   54.7263    5.9254 H         1 UNK         0.0000 
  15361 O(1)       55.8923   71.3634    6.2473 O.3       1 UNK         0.0000 
  15362 O(2)       53.8945   70.1233   12.2913 O.2       1 UNK         0.0000 
  15363 N(1)       56.0757   70.0726   11.6604 N.am      1 UNK         0.0000 
  15364 C(1)       55.9762   70.4316   10.2975 C.ar      1 UNK         0.0000 
  15365 C(2)       54.8941   71.1174    9.7463 C.ar      1 UNK         0.0000 
  15366 C(3)       54.8870   71.4262    8.3892 C.ar      1 UNK         0.0000 
  15367 C(4)       55.9570   71.0635    7.5752 C.ar      1 UNK         0.0000 
  15368 C(5)       57.0527   70.4052    8.1323 C.ar      1 UNK         0.0000 
  15369 C(6)       57.0580   70.0923    9.4841 C.ar      1 UNK         0.0000 
  15370 C(7)       55.0849   69.9198   12.5539 C.2       1 UNK         0.0000 
  15371 C(8)       55.5257   69.4872   13.9266 C.3       1 UNK         0.0000 
  15372 H(1)       54.0535   71.4031   10.3666 H         1 UNK         0.0000 
  15373 H(2)       54.0362   71.9561    7.9789 H         1 UNK         0.0000 
  15374 H(3)       57.8958   70.1351    7.5086 H         1 UNK         0.0000 
  15375 H(4)       57.9086   69.5792    9.9156 H         1 UNK         0.0000 
  15376 H(5)       56.7658   71.3028    5.8415 H         1 UNK         0.0000 
  15377 H(6)       57.0016   69.8279   11.9779 H         1 UNK         0.0000 
  15378 H(7)       55.4475   70.3116   14.5866 H         1 UNK         0.0000 
  15379 H(8)       56.5225   69.1300   13.9469 H         1 UNK         0.0000 
  15380 H(9)       54.8453   68.7641   14.2946 H         1 UNK         0.0000 
  15381 O(1)       60.2458   60.0419    9.4321 O.3       1 UNK         0.0000 
  15382 O(2)       62.2436   66.2106    9.5479 O.2       1 UNK         0.0000 
  15383 N(1)       60.0625   65.6062    9.3602 N.am      1 UNK         0.0000 
  15384 C(1)       60.1620   64.1978    9.4114 C.ar      1 UNK         0.0000 
  15385 C(2)       61.2441   63.5096    9.9597 C.ar      1 UNK         0.0000 
  15386 C(3)       61.2511   62.1178    9.9633 C.ar      1 UNK         0.0000 
  15387 C(4)       60.1811   61.4032    9.4309 C.ar      1 UNK         0.0000 
  15388 C(5)       59.0855   62.0911    8.9107 C.ar      1 UNK         0.0000 
  15389 C(6)       59.0802   63.4786    8.9020 C.ar      1 UNK         0.0000 
  15390 C(7)       61.0533   66.5115    9.4070 C.2       1 UNK         0.0000 
  15391 C(8)       60.6124   67.9457    9.2860 C.3       1 UNK         0.0000 
  15392 H(1)       62.0846   64.0521   10.3744 H         1 UNK         0.0000 
  15393 H(2)       62.1020   61.6013   10.3903 H         1 UNK         0.0000 
  15394 H(3)       58.2423   61.5418    8.5104 H         1 UNK         0.0000 
  15395 H(4)       58.2296   64.0121    8.4961 H         1 UNK         0.0000 
  15396 H(5)       59.3724   59.6593    9.2841 H         1 UNK         0.0000 
  15397 H(6)       59.1365   65.9697    9.1910 H         1 UNK         0.0000 
  15398 H(7)       60.6907   68.4088   10.2352 H         1 UNK         0.0000 
  15399 H(8)       59.6156   68.0438    8.9420 H         1 UNK         0.0000 
  15400 H(9)       61.2929   68.4633    8.6612 H         1 UNK         0.0000 
  15401 O(1)       50.4257   72.2396   15.5017 O.3       1 UNK         0.0000 
  15402 O(2)       52.4235   73.4796    9.4577 O.2       1 UNK         0.0000 
  15403 N(1)       50.2424   73.5303   10.0886 N.am      1 UNK         0.0000 
  15404 C(1)       50.3418   73.1714   11.4515 C.ar      1 UNK         0.0000 
  15405 C(2)       51.4240   72.4855   12.0027 C.ar      1 UNK         0.0000 
  15406 C(3)       51.4310   72.1767   13.3599 C.ar      1 UNK         0.0000 
  15407 C(4)       50.3610   72.5394   14.1738 C.ar      1 UNK         0.0000 
  15408 C(5)       49.2654   73.1977   13.6167 C.ar      1 UNK         0.0000 
  15409 C(6)       49.2601   73.5106   12.2649 C.ar      1 UNK         0.0000 
  15410 C(7)       51.2332   73.6831    9.1951 C.2       1 UNK         0.0000 
  15411 C(8)       50.7923   74.1157    7.8224 C.3       1 UNK         0.0000 
  15412 H(1)       52.2645   72.1998   11.3824 H         1 UNK         0.0000 
  15413 H(2)       52.2818   71.6468   13.7701 H         1 UNK         0.0000 
  15414 H(3)       48.4222   73.4678   14.2404 H         1 UNK         0.0000 
  15415 H(4)       48.4095   74.0237   11.8334 H         1 UNK         0.0000 
  15416 H(5)       49.5523   72.3001   15.9075 H         1 UNK         0.0000 
  15417 H(6)       49.3164   73.7750    9.7711 H         1 UNK         0.0000 
  15418 H(7)       50.8706   73.2913    7.1624 H         1 UNK         0.0000 
  15419 H(8)       49.7955   74.4729    7.8021 H         1 UNK         0.0000 
  15420 H(9)       51.4728   74.8388    7.4544 H         1 UNK         0.0000 
  15421 O(1)       51.5584   68.8787   12.3169 O.3       1 UNK         0.0000 
  15422 O(2)       49.5606   62.7099   12.2011 O.2       1 UNK         0.0000 
  15423 N(1)       51.7418   63.3143   12.3888 N.am      1 UNK         0.0000 
  15424 C(1)       51.6423   64.7228   12.3376 C.ar      1 UNK         0.0000 
  15425 C(2)       50.5602   65.4110   11.7893 C.ar      1 UNK         0.0000 
  15426 C(3)       50.5531   66.8028   11.7858 C.ar      1 UNK         0.0000 
  15427 C(4)       51.6232   67.5174   12.3181 C.ar      1 UNK         0.0000 
  15428 C(5)       52.7188   66.8295   12.8383 C.ar      1 UNK         0.0000 
  15429 C(6)       52.7241   65.4419   12.8470 C.ar      1 UNK         0.0000 
  15430 C(7)       50.7510   62.4090   12.3420 C.2       1 UNK         0.0000 
  15431 C(8)       51.1919   60.9749   12.4630 C.3       1 UNK         0.0000 
  15432 H(1)       49.7196   64.8685   11.3746 H         1 UNK         0.0000 
  15433 H(2)       49.7023   67.3193   11.3587 H         1 UNK         0.0000 
  15434 H(3)       53.5619   67.3787   13.2386 H         1 UNK         0.0000 
  15435 H(4)       53.5747   64.9084   13.2530 H         1 UNK         0.0000 
  15436 H(5)       52.4319   69.2613   12.4649 H         1 UNK         0.0000 
  15437 H(6)       52.6677   62.9509   12.5580 H         1 UNK         0.0000 
  15438 H(7)       51.1136   60.5118   11.5138 H         1 UNK         0.0000 
  15439 H(8)       52.1886   60.8768   12.8070 H         1 UNK         0.0000 
  15440 H(9)       50.5114   60.4572   13.0878 H         1 UNK         0.0000 
  15441 O(1)       55.8923   77.0943   13.4097 O.3       1 UNK         0.0000 
  15442 O(2)       53.8945   75.8542   19.4537 O.2       1 UNK         0.0000 
  15443 N(1)       56.0757   75.8036   18.8228 N.am      1 UNK         0.0000 
  15444 C(1)       55.9762   76.1625   17.4599 C.ar      1 UNK         0.0000 
  15445 C(2)       54.8941   76.8484   16.9087 C.ar      1 UNK         0.0000 
  15446 C(3)       54.8870   77.1572   15.5516 C.ar      1 UNK         0.0000 
  15447 C(4)       55.9570   76.7945   14.7376 C.ar      1 UNK         0.0000 
  15448 C(5)       57.0527   76.1361   15.2947 C.ar      1 UNK         0.0000 
  15449 C(6)       57.0580   75.8232   16.6465 C.ar      1 UNK         0.0000 
  15450 C(7)       55.0849   75.6508   19.7163 C.2       1 UNK         0.0000 
  15451 C(8)       55.5257   75.2181   21.0890 C.3       1 UNK         0.0000 
  15452 H(1)       54.0535   77.1341   17.5290 H         1 UNK         0.0000 
  15453 H(2)       54.0362   77.6871   15.1413 H         1 UNK         0.0000 
  15454 H(3)       57.8958   75.8660   14.6710 H         1 UNK         0.0000 
  15455 H(4)       57.9086   75.3102   17.0780 H         1 UNK         0.0000 
  15456 H(5)       56.7658   77.0338   13.0039 H         1 UNK         0.0000 
  15457 H(6)       57.0016   75.5589   19.1403 H         1 UNK         0.0000 
  15458 H(7)       55.4475   76.0426   21.7490 H         1 UNK         0.0000 
  15459 H(8)       56.5225   74.8610   21.1093 H         1 UNK         0.0000 
  15460 H(9)       54.8453   74.4950   21.4570 H         1 UNK         0.0000 
  15461 O(1)       60.2458   65.7728   16.5945 O.3       1 UNK         0.0000 
  15462 O(2)       62.2436   71.9416   16.7103 O.2       1 UNK         0.0000 
  15463 N(1)       60.0625   71.3372   16.5226 N.am      1 UNK         0.0000 
  15464 C(1)       60.1620   69.9288   16.5738 C.ar      1 UNK         0.0000 
  15465 C(2)       61.2441   69.2405   17.1221 C.ar      1 UNK         0.0000 
  15466 C(3)       61.2511   67.8487   17.1257 C.ar      1 UNK         0.0000 
  15467 C(4)       60.1811   67.1341   16.5933 C.ar      1 UNK         0.0000 
  15468 C(5)       59.0855   67.8221   16.0731 C.ar      1 UNK         0.0000 
  15469 C(6)       59.0802   69.2096   16.0644 C.ar      1 UNK         0.0000 
  15470 C(7)       61.0533   72.2425   16.5694 C.2       1 UNK         0.0000 
  15471 C(8)       60.6124   73.6766   16.4484 C.3       1 UNK         0.0000 
  15472 H(1)       62.0846   69.7831   17.5368 H         1 UNK         0.0000 
  15473 H(2)       62.1020   67.3323   17.5527 H         1 UNK         0.0000 
  15474 H(3)       58.2423   67.2728   15.6728 H         1 UNK         0.0000 
  15475 H(4)       58.2296   69.7431   15.6585 H         1 UNK         0.0000 
  15476 H(5)       59.3724   65.3902   16.4465 H         1 UNK         0.0000 
  15477 H(6)       59.1365   71.7007   16.3534 H         1 UNK         0.0000 
  15478 H(7)       60.6907   74.1397   17.3976 H         1 UNK         0.0000 
  15479 H(8)       59.6156   73.7748   16.1044 H         1 UNK         0.0000 
  15480 H(9)       61.2929   74.1943   15.8236 H         1 UNK         0.0000 
  15481 O(1)       55.9119   63.2882   22.6641 O.3       1 UNK         0.0000 
  15482 O(2)       57.9098   64.5283   16.6201 O.2       1 UNK         0.0000 
  15483 N(1)       55.7286   64.5789   17.2510 N.am      1 UNK         0.0000 
  15484 C(1)       55.8281   64.2200   18.6139 C.ar      1 UNK         0.0000 
  15485 C(2)       56.9102   63.5341   19.1651 C.ar      1 UNK         0.0000 
  15486 C(3)       56.9172   63.2253   20.5223 C.ar      1 UNK         0.0000 
  15487 C(4)       55.8472   63.5880   21.3362 C.ar      1 UNK         0.0000 
  15488 C(5)       54.7516   64.2464   20.7791 C.ar      1 UNK         0.0000 
  15489 C(6)       54.7463   64.5593   19.4273 C.ar      1 UNK         0.0000 
  15490 C(7)       56.7194   64.7317   16.3575 C.2       1 UNK         0.0000 
  15491 C(8)       56.2785   65.1644   14.9848 C.3       1 UNK         0.0000 
  15492 H(1)       57.7508   63.2484   18.5448 H         1 UNK         0.0000 
  15493 H(2)       57.7681   62.6954   20.9325 H         1 UNK         0.0000 
  15494 H(3)       53.9084   64.5165   21.4028 H         1 UNK         0.0000 
  15495 H(4)       53.8957   65.0723   18.9958 H         1 UNK         0.0000 
  15496 H(5)       55.0385   63.3487   23.0699 H         1 UNK         0.0000 
  15497 H(6)       54.8026   64.8236   16.9335 H         1 UNK         0.0000 
  15498 H(7)       56.3568   64.3399   14.3248 H         1 UNK         0.0000 
  15499 H(8)       55.2817   65.5215   14.9645 H         1 UNK         0.0000 
  15500 H(9)       56.9590   65.8875   14.6168 H         1 UNK         0.0000 
  15501 O(1)       58.6354   74.6097   19.4793 O.3       1 UNK         0.0000 
  15502 O(2)       56.6376   68.4409   19.3635 O.2       1 UNK         0.0000 
  15503 N(1)       58.8188   69.0453   19.5512 N.am      1 UNK         0.0000 
  15504 C(1)       58.7193   70.4537   19.5000 C.ar      1 UNK         0.0000 
  15505 C(2)       57.6372   71.1420   18.9517 C.ar      1 UNK         0.0000 
  15506 C(3)       57.6301   72.5338   18.9482 C.ar      1 UNK         0.0000 
  15507 C(4)       58.7002   73.2484   19.4805 C.ar      1 UNK         0.0000 
  15508 C(5)       59.7958   72.5605   20.0007 C.ar      1 UNK         0.0000 
  15509 C(6)       59.8011   71.1729   20.0094 C.ar      1 UNK         0.0000 
  15510 C(7)       57.8280   68.1400   19.5044 C.2       1 UNK         0.0000 
  15511 C(8)       58.2689   66.7059   19.6254 C.3       1 UNK         0.0000 
  15512 H(1)       56.7966   70.5994   18.5370 H         1 UNK         0.0000 
  15513 H(2)       56.7793   73.0502   18.5211 H         1 UNK         0.0000 
  15514 H(3)       60.6389   73.1097   20.4010 H         1 UNK         0.0000 
  15515 H(4)       60.6517   70.6394   20.4154 H         1 UNK         0.0000 
  15516 H(5)       59.5089   74.9923   19.6273 H         1 UNK         0.0000 
  15517 H(6)       59.7447   68.6818   19.7204 H         1 UNK         0.0000 
  15518 H(7)       58.1906   66.2428   18.6762 H         1 UNK         0.0000 
  15519 H(8)       59.2656   66.6077   19.9694 H         1 UNK         0.0000 
  15520 H(9)       57.5884   66.1882   20.2502 H         1 UNK         0.0000 
  15521 O(1)       54.3016   68.1430   20.5721 O.3       1 UNK         0.0000 
  15522 O(2)       52.3037   66.9029   26.6161 O.2       1 UNK         0.0000 
  15523 N(1)       54.4849   66.8522   25.9852 N.am      1 UNK         0.0000 
  15524 C(1)       54.3854   67.2112   24.6223 C.ar      1 UNK         0.0000 
  15525 C(2)       53.3033   67.8970   24.0711 C.ar      1 UNK         0.0000 
  15526 C(3)       53.2962   68.2058   22.7140 C.ar      1 UNK         0.0000 
  15527 C(4)       54.3663   67.8431   21.9000 C.ar      1 UNK         0.0000 
  15528 C(5)       55.4619   67.1848   22.4571 C.ar      1 UNK         0.0000 
  15529 C(6)       55.4672   66.8719   23.8089 C.ar      1 UNK         0.0000 
  15530 C(7)       53.4941   66.6994   26.8787 C.2       1 UNK         0.0000 
  15531 C(8)       53.9350   66.2668   28.2514 C.3       1 UNK         0.0000 
  15532 H(1)       52.4627   68.1827   24.6914 H         1 UNK         0.0000 
  15533 H(2)       52.4454   68.7357   22.3037 H         1 UNK         0.0000 
  15534 H(3)       56.3050   66.9147   21.8334 H         1 UNK         0.0000 
  15535 H(4)       56.3178   66.3588   24.2404 H         1 UNK         0.0000 
  15536 H(5)       55.1750   68.0824   20.1663 H         1 UNK         0.0000 
  15537 H(6)       55.4108   66.6075   26.3027 H         1 UNK         0.0000 
  15538 H(7)       53.8567   67.0912   28.9114 H         1 UNK         0.0000 
  15539 H(8)       54.9317   65.9096   28.2717 H         1 UNK         0.0000 
  15540 H(9)       53.2545   65.5437   28.6194 H         1 UNK         0.0000 
  15541 O(1)       53.1688   71.5038   23.7569 O.3       1 UNK         0.0000 
  15542 O(2)       55.1666   77.6726   23.8727 O.2       1 UNK         0.0000 
  15543 N(1)       52.9855   77.0682   23.6850 N.am      1 UNK         0.0000 
  15544 C(1)       53.0850   75.6597   23.7362 C.ar      1 UNK         0.0000 
  15545 C(2)       54.1671   74.9715   24.2845 C.ar      1 UNK         0.0000 
  15546 C(3)       54.1741   73.5797   24.2881 C.ar      1 UNK         0.0000 
  15547 C(4)       53.1041   72.8651   23.7557 C.ar      1 UNK         0.0000 
  15548 C(5)       52.0085   73.5530   23.2355 C.ar      1 UNK         0.0000 
  15549 C(6)       52.0032   74.9406   23.2268 C.ar      1 UNK         0.0000 
  15550 C(7)       53.9763   77.9735   23.7318 C.2       1 UNK         0.0000 
  15551 C(8)       53.5354   79.4076   23.6108 C.3       1 UNK         0.0000 
  15552 H(1)       55.0076   75.5140   24.6992 H         1 UNK         0.0000 
  15553 H(2)       55.0250   73.0632   24.7151 H         1 UNK         0.0000 
  15554 H(3)       51.1653   73.0038   22.8352 H         1 UNK         0.0000 
  15555 H(4)       51.1526   75.4741   22.8209 H         1 UNK         0.0000 
  15556 H(5)       52.2954   71.1212   23.6089 H         1 UNK         0.0000 
  15557 H(6)       52.0595   77.4316   23.5158 H         1 UNK         0.0000 
  15558 H(7)       53.6137   79.8707   24.5600 H         1 UNK         0.0000 
  15559 H(8)       52.5386   79.5057   23.2668 H         1 UNK         0.0000 
  15560 H(9)       54.2159   79.9253   22.9860 H         1 UNK         0.0000 
  15561 O(1)       57.5027   66.5086    8.3393 O.3       1 UNK         0.0000 
  15562 O(2)       59.5005   67.7487    2.2953 O.2       1 UNK         0.0000 
  15563 N(1)       57.3194   67.7993    2.9262 N.am      1 UNK         0.0000 
  15564 C(1)       57.4188   67.4404    4.2891 C.ar      1 UNK         0.0000 
  15565 C(2)       58.5010   66.7545    4.8403 C.ar      1 UNK         0.0000 
  15566 C(3)       58.5080   66.4457    6.1975 C.ar      1 UNK         0.0000 
  15567 C(4)       57.4380   66.8084    7.0114 C.ar      1 UNK         0.0000 
  15568 C(5)       56.3424   67.4668    6.4543 C.ar      1 UNK         0.0000 
  15569 C(6)       56.3371   67.7797    5.1025 C.ar      1 UNK         0.0000 
  15570 C(7)       58.3102   67.9521    2.0327 C.2       1 UNK         0.0000 
  15571 C(8)       57.8693   68.3848    0.6600 C.3       1 UNK         0.0000 
  15572 H(1)       59.3415   66.4688    4.2200 H         1 UNK         0.0000 
  15573 H(2)       59.3588   65.9158    6.6077 H         1 UNK         0.0000 
  15574 H(3)       55.4992   67.7369    7.0780 H         1 UNK         0.0000 
  15575 H(4)       55.4865   68.2927    4.6710 H         1 UNK         0.0000 
  15576 H(5)       56.6293   66.5691    8.7451 H         1 UNK         0.0000 
  15577 H(6)       56.3934   68.0440    2.6087 H         1 UNK         0.0000 
  15578 H(7)       57.9476   67.5603    0.0000 H         1 UNK         0.0000 
  15579 H(8)       56.8725   68.7419    0.6397 H         1 UNK         0.0000 
  15580 H(9)       58.5498   69.1079    0.2920 H         1 UNK         0.0000 
  15581 O(1)       60.2262   77.8301    5.1545 O.3       1 UNK         0.0000 
  15582 O(2)       58.2284   71.6613    5.0387 O.2       1 UNK         0.0000 
  15583 N(1)       60.4096   72.2657    5.2264 N.am      1 UNK         0.0000 
  15584 C(1)       60.3101   73.6741    5.1752 C.ar      1 UNK         0.0000 
  15585 C(2)       59.2279   74.3624    4.6269 C.ar      1 UNK         0.0000 
  15586 C(3)       59.2209   75.7542    4.6234 C.ar      1 UNK         0.0000 
  15587 C(4)       60.2909   76.4688    5.1557 C.ar      1 UNK         0.0000 
  15588 C(5)       61.3865   75.7809    5.6759 C.ar      1 UNK         0.0000 
  15589 C(6)       61.3919   74.3933    5.6846 C.ar      1 UNK         0.0000 
  15590 C(7)       59.4188   71.3604    5.1796 C.2       1 UNK         0.0000 
  15591 C(8)       59.8596   69.9263    5.3006 C.3       1 UNK         0.0000 
  15592 H(1)       58.3874   73.8198    4.2122 H         1 UNK         0.0000 
  15593 H(2)       58.3701   76.2706    4.1963 H         1 UNK         0.0000 
  15594 H(3)       62.2297   76.3301    6.0762 H         1 UNK         0.0000 
  15595 H(4)       62.2425   73.8598    6.0906 H         1 UNK         0.0000 
  15596 H(5)       61.0997   78.2127    5.3025 H         1 UNK         0.0000 
  15597 H(6)       61.3355   71.9022    5.3956 H         1 UNK         0.0000 
  15598 H(7)       59.7814   69.4632    4.3514 H         1 UNK         0.0000 
  15599 H(8)       60.8564   69.8281    5.6446 H         1 UNK         0.0000 
  15600 H(9)       59.1792   69.4086    5.9254 H         1 UNK         0.0000 
  15601 O(1)       57.4831   86.0457    6.2473 O.3       1 UNK         0.0000 
  15602 O(2)       55.4853   84.8056   12.2913 O.2       1 UNK         0.0000 
  15603 N(1)       57.6664   84.7550   11.6604 N.am      1 UNK         0.0000 
  15604 C(1)       57.5670   85.1139   10.2975 C.ar      1 UNK         0.0000 
  15605 C(2)       56.4848   85.7998    9.7463 C.ar      1 UNK         0.0000 
  15606 C(3)       56.4778   86.1085    8.3892 C.ar      1 UNK         0.0000 
  15607 C(4)       57.5478   85.7459    7.5752 C.ar      1 UNK         0.0000 
  15608 C(5)       58.6434   85.0875    8.1323 C.ar      1 UNK         0.0000 
  15609 C(6)       58.6487   84.7746    9.4841 C.ar      1 UNK         0.0000 
  15610 C(7)       56.6757   84.6021   12.5539 C.2       1 UNK         0.0000 
  15611 C(8)       57.1165   84.1695   13.9266 C.3       1 UNK         0.0000 
  15612 H(1)       55.6443   86.0854   10.3666 H         1 UNK         0.0000 
  15613 H(2)       55.6270   86.6384    7.9789 H         1 UNK         0.0000 
  15614 H(3)       59.4866   84.8174    7.5086 H         1 UNK         0.0000 
  15615 H(4)       59.4994   84.2615    9.9156 H         1 UNK         0.0000 
  15616 H(5)       58.3566   85.9852    5.8415 H         1 UNK         0.0000 
  15617 H(6)       58.5924   84.5102   11.9779 H         1 UNK         0.0000 
  15618 H(7)       57.0383   84.9940   14.5866 H         1 UNK         0.0000 
  15619 H(8)       58.1133   83.8124   13.9469 H         1 UNK         0.0000 
  15620 H(9)       56.4360   83.4464   14.2946 H         1 UNK         0.0000 
  15621 O(1)       61.8366   74.7242    9.4321 O.3       1 UNK         0.0000 
  15622 O(2)       63.8344   80.8930    9.5479 O.2       1 UNK         0.0000 
  15623 N(1)       61.6533   80.2886    9.3602 N.am      1 UNK         0.0000 
  15624 C(1)       61.7527   78.8801    9.4114 C.ar      1 UNK         0.0000 
  15625 C(2)       62.8349   78.1919    9.9597 C.ar      1 UNK         0.0000 
  15626 C(3)       62.8419   76.8001    9.9633 C.ar      1 UNK         0.0000 
  15627 C(4)       61.7719   76.0855    9.4309 C.ar      1 UNK         0.0000 
  15628 C(5)       60.6763   76.7734    8.9107 C.ar      1 UNK         0.0000 
  15629 C(6)       60.6710   78.1610    8.9020 C.ar      1 UNK         0.0000 
  15630 C(7)       62.6441   81.1939    9.4070 C.2       1 UNK         0.0000 
  15631 C(8)       62.2032   82.6280    9.2860 C.3       1 UNK         0.0000 
  15632 H(1)       63.6754   78.7344   10.3744 H         1 UNK         0.0000 
  15633 H(2)       63.6927   76.2836   10.3903 H         1 UNK         0.0000 
  15634 H(3)       59.8331   76.2242    8.5104 H         1 UNK         0.0000 
  15635 H(4)       59.8204   78.6945    8.4961 H         1 UNK         0.0000 
  15636 H(5)       60.9632   74.3416    9.2841 H         1 UNK         0.0000 
  15637 H(6)       60.7273   80.6520    9.1910 H         1 UNK         0.0000 
  15638 H(7)       62.2815   83.0911   10.2352 H         1 UNK         0.0000 
  15639 H(8)       61.2064   82.7261    8.9420 H         1 UNK         0.0000 
  15640 H(9)       62.8837   83.1457    8.6612 H         1 UNK         0.0000 
  15641 O(1)       52.0165   86.9219   15.5017 O.3       1 UNK         0.0000 
  15642 O(2)       54.0143   88.1620    9.4577 O.2       1 UNK         0.0000 
  15643 N(1)       51.8332   88.2126   10.0886 N.am      1 UNK         0.0000 
  15644 C(1)       51.9326   87.8537   11.4515 C.ar      1 UNK         0.0000 
  15645 C(2)       53.0148   87.1678   12.0027 C.ar      1 UNK         0.0000 
  15646 C(3)       53.0218   86.8590   13.3599 C.ar      1 UNK         0.0000 
  15647 C(4)       51.9518   87.2217   14.1738 C.ar      1 UNK         0.0000 
  15648 C(5)       50.8562   87.8801   13.6167 C.ar      1 UNK         0.0000 
  15649 C(6)       50.8509   88.1930   12.2649 C.ar      1 UNK         0.0000 
  15650 C(7)       52.8240   88.3654    9.1951 C.2       1 UNK         0.0000 
  15651 C(8)       52.3831   88.7981    7.8224 C.3       1 UNK         0.0000 
  15652 H(1)       53.8553   86.8821   11.3824 H         1 UNK         0.0000 
  15653 H(2)       53.8726   86.3291   13.7701 H         1 UNK         0.0000 
  15654 H(3)       50.0130   88.1502   14.2404 H         1 UNK         0.0000 
  15655 H(4)       50.0003   88.7060   11.8334 H         1 UNK         0.0000 
  15656 H(5)       51.1431   86.9824   15.9075 H         1 UNK         0.0000 
  15657 H(6)       50.9072   88.4573    9.7711 H         1 UNK         0.0000 
  15658 H(7)       52.4614   87.9736    7.1624 H         1 UNK         0.0000 
  15659 H(8)       51.3863   89.1552    7.8021 H         1 UNK         0.0000 
  15660 H(9)       53.0636   89.5212    7.4544 H         1 UNK         0.0000 
  15661 O(1)       53.1492   83.5611   12.3169 O.3       1 UNK         0.0000 
  15662 O(2)       51.1514   77.3923   12.2011 O.2       1 UNK         0.0000 
  15663 N(1)       53.3326   77.9967   12.3888 N.am      1 UNK         0.0000 
  15664 C(1)       53.2331   79.4051   12.3376 C.ar      1 UNK         0.0000 
  15665 C(2)       52.1509   80.0933   11.7893 C.ar      1 UNK         0.0000 
  15666 C(3)       52.1439   81.4851   11.7858 C.ar      1 UNK         0.0000 
  15667 C(4)       53.2139   82.1997   12.3181 C.ar      1 UNK         0.0000 
  15668 C(5)       54.3095   81.5118   12.8383 C.ar      1 UNK         0.0000 
  15669 C(6)       54.3149   80.1243   12.8470 C.ar      1 UNK         0.0000 
  15670 C(7)       52.3418   77.0914   12.3420 C.2       1 UNK         0.0000 
  15671 C(8)       52.7826   75.6572   12.4630 C.3       1 UNK         0.0000 
  15672 H(1)       51.3104   79.5508   11.3746 H         1 UNK         0.0000 
  15673 H(2)       51.2931   82.0016   11.3587 H         1 UNK         0.0000 
  15674 H(3)       55.1527   82.0611   13.2386 H         1 UNK         0.0000 
  15675 H(4)       55.1655   79.5908   13.2530 H         1 UNK         0.0000 
  15676 H(5)       54.0227   83.9437   12.4649 H         1 UNK         0.0000 
  15677 H(6)       54.2585   77.6332   12.5580 H         1 UNK         0.0000 
  15678 H(7)       52.7044   75.1941   11.5138 H         1 UNK         0.0000 
  15679 H(8)       53.7794   75.5591   12.8070 H         1 UNK         0.0000 
  15680 H(9)       52.1022   75.1396   13.0878 H         1 UNK         0.0000 
  15681 O(1)       57.4831   91.7766   13.4097 O.3       1 UNK         0.0000 
  15682 O(2)       55.4853   90.5366   19.4537 O.2       1 UNK         0.0000 
  15683 N(1)       57.6664   90.4859   18.8228 N.am      1 UNK         0.0000 
  15684 C(1)       57.5670   90.8448   17.4599 C.ar      1 UNK         0.0000 
  15685 C(2)       56.4848   91.5307   16.9087 C.ar      1 UNK         0.0000 
  15686 C(3)       56.4778   91.8395   15.5516 C.ar      1 UNK         0.0000 
  15687 C(4)       57.5478   91.4768   14.7376 C.ar      1 UNK         0.0000 
  15688 C(5)       58.6434   90.8185   15.2947 C.ar      1 UNK         0.0000 
  15689 C(6)       58.6487   90.5056   16.6465 C.ar      1 UNK         0.0000 
  15690 C(7)       56.6757   90.3331   19.7163 C.2       1 UNK         0.0000 
  15691 C(8)       57.1165   89.9005   21.0890 C.3       1 UNK         0.0000 
  15692 H(1)       55.6443   91.8164   17.5290 H         1 UNK         0.0000 
  15693 H(2)       55.6270   92.3694   15.1413 H         1 UNK         0.0000 
  15694 H(3)       59.4866   90.5484   14.6710 H         1 UNK         0.0000 
  15695 H(4)       59.4994   89.9925   17.0780 H         1 UNK         0.0000 
  15696 H(5)       58.3566   91.7161   13.0039 H         1 UNK         0.0000 
  15697 H(6)       58.5924   90.2412   19.1403 H         1 UNK         0.0000 
  15698 H(7)       57.0383   90.7249   21.7490 H         1 UNK         0.0000 
  15699 H(8)       58.1133   89.5433   21.1093 H         1 UNK         0.0000 
  15700 H(9)       56.4360   89.1774   21.4570 H         1 UNK         0.0000 
  15701 O(1)       61.8366   80.4552   16.5945 O.3       1 UNK         0.0000 
  15702 O(2)       63.8344   86.6239   16.7103 O.2       1 UNK         0.0000 
  15703 N(1)       61.6533   86.0195   16.5226 N.am      1 UNK         0.0000 
  15704 C(1)       61.7527   84.6111   16.5738 C.ar      1 UNK         0.0000 
  15705 C(2)       62.8349   83.9229   17.1221 C.ar      1 UNK         0.0000 
  15706 C(3)       62.8419   82.5311   17.1257 C.ar      1 UNK         0.0000 
  15707 C(4)       61.7719   81.8165   16.5933 C.ar      1 UNK         0.0000 
  15708 C(5)       60.6763   82.5044   16.0731 C.ar      1 UNK         0.0000 
  15709 C(6)       60.6710   83.8919   16.0644 C.ar      1 UNK         0.0000 
  15710 C(7)       62.6441   86.9248   16.5694 C.2       1 UNK         0.0000 
  15711 C(8)       62.2032   88.3590   16.4484 C.3       1 UNK         0.0000 
  15712 H(1)       63.6754   84.4654   17.5368 H         1 UNK         0.0000 
  15713 H(2)       63.6927   82.0146   17.5527 H         1 UNK         0.0000 
  15714 H(3)       59.8331   81.9551   15.6728 H         1 UNK         0.0000 
  15715 H(4)       59.8204   84.4254   15.6585 H         1 UNK         0.0000 
  15716 H(5)       60.9632   80.0725   16.4465 H         1 UNK         0.0000 
  15717 H(6)       60.7273   86.3830   16.3534 H         1 UNK         0.0000 
  15718 H(7)       62.2815   88.8221   17.3976 H         1 UNK         0.0000 
  15719 H(8)       61.2064   88.4571   16.1044 H         1 UNK         0.0000 
  15720 H(9)       62.8837   88.8766   15.8236 H         1 UNK         0.0000 
  15721 O(1)       57.5027   77.9705   22.6641 O.3       1 UNK         0.0000 
  15722 O(2)       59.5005   79.2106   16.6201 O.2       1 UNK         0.0000 
  15723 N(1)       57.3194   79.2612   17.2510 N.am      1 UNK         0.0000 
  15724 C(1)       57.4188   78.9023   18.6139 C.ar      1 UNK         0.0000 
  15725 C(2)       58.5010   78.2164   19.1651 C.ar      1 UNK         0.0000 
  15726 C(3)       58.5080   77.9077   20.5223 C.ar      1 UNK         0.0000 
  15727 C(4)       57.4380   78.2703   21.3362 C.ar      1 UNK         0.0000 
  15728 C(5)       56.3424   78.9287   20.7791 C.ar      1 UNK         0.0000 
  15729 C(6)       56.3371   79.2416   19.4273 C.ar      1 UNK         0.0000 
  15730 C(7)       58.3102   79.4141   16.3575 C.2       1 UNK         0.0000 
  15731 C(8)       57.8693   79.8467   14.9848 C.3       1 UNK         0.0000 
  15732 H(1)       59.3415   77.9308   18.5448 H         1 UNK         0.0000 
  15733 H(2)       59.3588   77.3778   20.9325 H         1 UNK         0.0000 
  15734 H(3)       55.4992   79.1988   21.4028 H         1 UNK         0.0000 
  15735 H(4)       55.4865   79.7547   18.9958 H         1 UNK         0.0000 
  15736 H(5)       56.6293   78.0310   23.0699 H         1 UNK         0.0000 
  15737 H(6)       56.3934   79.5060   16.9335 H         1 UNK         0.0000 
  15738 H(7)       57.9476   79.0222   14.3248 H         1 UNK         0.0000 
  15739 H(8)       56.8725   80.2038   14.9645 H         1 UNK         0.0000 
  15740 H(9)       58.5498   80.5698   14.6168 H         1 UNK         0.0000 
  15741 O(1)       60.2262   89.2920   19.4793 O.3       1 UNK         0.0000 
  15742 O(2)       58.2284   83.1232   19.3635 O.2       1 UNK         0.0000 
  15743 N(1)       60.4096   83.7276   19.5512 N.am      1 UNK         0.0000 
  15744 C(1)       60.3101   85.1361   19.5000 C.ar      1 UNK         0.0000 
  15745 C(2)       59.2279   85.8243   18.9517 C.ar      1 UNK         0.0000 
  15746 C(3)       59.2209   87.2161   18.9482 C.ar      1 UNK         0.0000 
  15747 C(4)       60.2909   87.9307   19.4805 C.ar      1 UNK         0.0000 
  15748 C(5)       61.3865   87.2428   20.0007 C.ar      1 UNK         0.0000 
  15749 C(6)       61.3919   85.8552   20.0094 C.ar      1 UNK         0.0000 
  15750 C(7)       59.4188   82.8223   19.5044 C.2       1 UNK         0.0000 
  15751 C(8)       59.8596   81.3882   19.6254 C.3       1 UNK         0.0000 
  15752 H(1)       58.3874   85.2818   18.5370 H         1 UNK         0.0000 
  15753 H(2)       58.3701   87.7326   18.5211 H         1 UNK         0.0000 
  15754 H(3)       62.2297   87.7920   20.4010 H         1 UNK         0.0000 
  15755 H(4)       62.2425   85.3217   20.4154 H         1 UNK         0.0000 
  15756 H(5)       61.0997   89.6746   19.6273 H         1 UNK         0.0000 
  15757 H(6)       61.3355   83.3642   19.7204 H         1 UNK         0.0000 
  15758 H(7)       59.7814   80.9251   18.6762 H         1 UNK         0.0000 
  15759 H(8)       60.8564   81.2901   19.9694 H         1 UNK         0.0000 
  15760 H(9)       59.1792   80.8705   20.2502 H         1 UNK         0.0000 
  15761 O(1)       55.8923   82.8253   20.5721 O.3       1 UNK         0.0000 
  15762 O(2)       53.8945   81.5852   26.6161 O.2       1 UNK         0.0000 
  15763 N(1)       56.0757   81.5346   25.9852 N.am      1 UNK         0.0000 
  15764 C(1)       55.9762   81.8935   24.6223 C.ar      1 UNK         0.0000 
  15765 C(2)       54.8941   82.5794   24.0711 C.ar      1 UNK         0.0000 
  15766 C(3)       54.8870   82.8881   22.7140 C.ar      1 UNK         0.0000 
  15767 C(4)       55.9570   82.5255   21.9000 C.ar      1 UNK         0.0000 
  15768 C(5)       57.0527   81.8671   22.4571 C.ar      1 UNK         0.0000 
  15769 C(6)       57.0580   81.5542   23.8089 C.ar      1 UNK         0.0000 
  15770 C(7)       55.0849   81.3817   26.8787 C.2       1 UNK         0.0000 
  15771 C(8)       55.5257   80.9491   28.2514 C.3       1 UNK         0.0000 
  15772 H(1)       54.0535   82.8650   24.6914 H         1 UNK         0.0000 
  15773 H(2)       54.0362   83.4180   22.3037 H         1 UNK         0.0000 
  15774 H(3)       57.8958   81.5970   21.8334 H         1 UNK         0.0000 
  15775 H(4)       57.9086   81.0412   24.2404 H         1 UNK         0.0000 
  15776 H(5)       56.7658   82.7648   20.1663 H         1 UNK         0.0000 
  15777 H(6)       57.0016   81.2898   26.3027 H         1 UNK         0.0000 
  15778 H(7)       55.4475   81.7736   28.9114 H         1 UNK         0.0000 
  15779 H(8)       56.5225   80.5920   28.2717 H         1 UNK         0.0000 
  15780 H(9)       54.8453   80.2260   28.6194 H         1 UNK         0.0000 
  15781 O(1)       54.7596   86.1861   23.7569 O.3       1 UNK         0.0000 
  15782 O(2)       56.7574   92.3549   23.8727 O.2       1 UNK         0.0000 
  15783 N(1)       54.5763   91.7505   23.6850 N.am      1 UNK         0.0000 
  15784 C(1)       54.6757   90.3421   23.7362 C.ar      1 UNK         0.0000 
  15785 C(2)       55.7579   89.6538   24.2845 C.ar      1 UNK         0.0000 
  15786 C(3)       55.7649   88.2620   24.2881 C.ar      1 UNK         0.0000 
  15787 C(4)       54.6949   87.5474   23.7557 C.ar      1 UNK         0.0000 
  15788 C(5)       53.5993   88.2353   23.2355 C.ar      1 UNK         0.0000 
  15789 C(6)       53.5940   89.6229   23.2268 C.ar      1 UNK         0.0000 
  15790 C(7)       55.5671   92.6558   23.7318 C.2       1 UNK         0.0000 
  15791 C(8)       55.1262   94.0899   23.6108 C.3       1 UNK         0.0000 
  15792 H(1)       56.5984   90.1964   24.6992 H         1 UNK         0.0000 
  15793 H(2)       56.6157   87.7456   24.7151 H         1 UNK         0.0000 
  15794 H(3)       52.7561   87.6861   22.8352 H         1 UNK         0.0000 
  15795 H(4)       52.7434   90.1564   22.8209 H         1 UNK         0.0000 
  15796 H(5)       53.8862   85.8035   23.6089 H         1 UNK         0.0000 
  15797 H(6)       53.6503   92.1140   23.5158 H         1 UNK         0.0000 
  15798 H(7)       55.2045   94.5530   24.5600 H         1 UNK         0.0000 
  15799 H(8)       54.1294   94.1881   23.2668 H         1 UNK         0.0000 
  15800 H(9)       55.8067   94.6076   22.9860 H         1 UNK         0.0000 
  15801 O(1)       59.0935   81.1909    8.3393 O.3       1 UNK         0.0000 
  15802 O(2)       61.0913   82.4310    2.2953 O.2       1 UNK         0.0000 
  15803 N(1)       58.9102   82.4816    2.9262 N.am      1 UNK         0.0000 
  15804 C(1)       59.0096   82.1227    4.2891 C.ar      1 UNK         0.0000 
  15805 C(2)       60.0918   81.4368    4.8403 C.ar      1 UNK         0.0000 
  15806 C(3)       60.0988   81.1281    6.1975 C.ar      1 UNK         0.0000 
  15807 C(4)       59.0288   81.4907    7.0114 C.ar      1 UNK         0.0000 
  15808 C(5)       57.9332   82.1491    6.4543 C.ar      1 UNK         0.0000 
  15809 C(6)       57.9279   82.4620    5.1025 C.ar      1 UNK         0.0000 
  15810 C(7)       59.9010   82.6345    2.0327 C.2       1 UNK         0.0000 
  15811 C(8)       59.4601   83.0671    0.6600 C.3       1 UNK         0.0000 
  15812 H(1)       60.9323   81.1512    4.2200 H         1 UNK         0.0000 
  15813 H(2)       60.9496   80.5982    6.6077 H         1 UNK         0.0000 
  15814 H(3)       57.0900   82.4192    7.0780 H         1 UNK         0.0000 
  15815 H(4)       57.0773   82.9751    4.6710 H         1 UNK         0.0000 
  15816 H(5)       58.2201   81.2514    8.7451 H         1 UNK         0.0000 
  15817 H(6)       57.9842   82.7264    2.6087 H         1 UNK         0.0000 
  15818 H(7)       59.5384   82.2426    0.0000 H         1 UNK         0.0000 
  15819 H(8)       58.4633   83.4242    0.6397 H         1 UNK         0.0000 
  15820 H(9)       60.1406   83.7902    0.2920 H         1 UNK         0.0000 
  15821 O(1)       61.8170   92.5124    5.1545 O.3       1 UNK         0.0000 
  15822 O(2)       59.8192   86.3436    5.0387 O.2       1 UNK         0.0000 
  15823 N(1)       62.0003   86.9480    5.2264 N.am      1 UNK         0.0000 
  15824 C(1)       61.9009   88.3565    5.1752 C.ar      1 UNK         0.0000 
  15825 C(2)       60.8187   89.0447    4.6269 C.ar      1 UNK         0.0000 
  15826 C(3)       60.8117   90.4365    4.6234 C.ar      1 UNK         0.0000 
  15827 C(4)       61.8817   91.1511    5.1557 C.ar      1 UNK         0.0000 
  15828 C(5)       62.9773   90.4632    5.6759 C.ar      1 UNK         0.0000 
  15829 C(6)       62.9826   89.0756    5.6846 C.ar      1 UNK         0.0000 
  15830 C(7)       61.0096   86.0427    5.1796 C.2       1 UNK         0.0000 
  15831 C(8)       61.4504   84.6086    5.3006 C.3       1 UNK         0.0000 
  15832 H(1)       59.9782   88.5022    4.2122 H         1 UNK         0.0000 
  15833 H(2)       59.9609   90.9530    4.1963 H         1 UNK         0.0000 
  15834 H(3)       63.8205   91.0124    6.0762 H         1 UNK         0.0000 
  15835 H(4)       63.8333   88.5421    6.0906 H         1 UNK         0.0000 
  15836 H(5)       62.6904   92.8950    5.3025 H         1 UNK         0.0000 
  15837 H(6)       62.9263   86.5846    5.3956 H         1 UNK         0.0000 
  15838 H(7)       61.3722   84.1455    4.3514 H         1 UNK         0.0000 
  15839 H(8)       62.4472   84.5105    5.6446 H         1 UNK         0.0000 
  15840 H(9)       60.7699   84.0909    5.9254 H         1 UNK         0.0000 
  15841 O(1)       59.0739  100.7280    6.2473 O.3       1 UNK         0.0000 
  15842 O(2)       57.0761   99.4879   12.2913 O.2       1 UNK         0.0000 
  15843 N(1)       59.2572   99.4373   11.6604 N.am      1 UNK         0.0000 
  15844 C(1)       59.1578   99.7962   10.2975 C.ar      1 UNK         0.0000 
  15845 C(2)       58.0756  100.4821    9.7463 C.ar      1 UNK         0.0000 
  15846 C(3)       58.0686  100.7909    8.3892 C.ar      1 UNK         0.0000 
  15847 C(4)       59.1386  100.4282    7.5752 C.ar      1 UNK         0.0000 
  15848 C(5)       60.2342   99.7698    8.1323 C.ar      1 UNK         0.0000 
  15849 C(6)       60.2395   99.4569    9.4841 C.ar      1 UNK         0.0000 
  15850 C(7)       58.2665   99.2845   12.5539 C.2       1 UNK         0.0000 
  15851 C(8)       58.7073   98.8518   13.9266 C.3       1 UNK         0.0000 
  15852 H(1)       57.2351  100.7678   10.3666 H         1 UNK         0.0000 
  15853 H(2)       57.2178  101.3208    7.9789 H         1 UNK         0.0000 
  15854 H(3)       61.0774   99.4997    7.5086 H         1 UNK         0.0000 
  15855 H(4)       61.0901   98.9439    9.9156 H         1 UNK         0.0000 
  15856 H(5)       59.9473  100.6675    5.8415 H         1 UNK         0.0000 
  15857 H(6)       60.1832   99.1926   11.9779 H         1 UNK         0.0000 
  15858 H(7)       58.6290   99.6763   14.5866 H         1 UNK         0.0000 
  15859 H(8)       59.7041   98.4947   13.9469 H         1 UNK         0.0000 
  15860 H(9)       58.0268   98.1287   14.2946 H         1 UNK         0.0000 
  15861 O(1)       63.4274   89.4065    9.4321 O.3       1 UNK         0.0000 
  15862 O(2)       65.4252   95.5753    9.5479 O.2       1 UNK         0.0000 
  15863 N(1)       63.2441   94.9709    9.3602 N.am      1 UNK         0.0000 
  15864 C(1)       63.3435   93.5625    9.4114 C.ar      1 UNK         0.0000 
  15865 C(2)       64.4257   92.8742    9.9597 C.ar      1 UNK         0.0000 
  15866 C(3)       64.4327   91.4824    9.9633 C.ar      1 UNK         0.0000 
  15867 C(4)       63.3627   90.7678    9.4309 C.ar      1 UNK         0.0000 
  15868 C(5)       62.2671   91.4557    8.9107 C.ar      1 UNK         0.0000 
  15869 C(6)       62.2618   92.8433    8.9020 C.ar      1 UNK         0.0000 
  15870 C(7)       64.2348   95.8762    9.4070 C.2       1 UNK         0.0000 
  15871 C(8)       63.7940   97.3103    9.2860 C.3       1 UNK         0.0000 
  15872 H(1)       65.2662   93.4168   10.3744 H         1 UNK         0.0000 
  15873 H(2)       65.2835   90.9660   10.3903 H         1 UNK         0.0000 
  15874 H(3)       61.4239   90.9065    8.5104 H         1 UNK         0.0000 
  15875 H(4)       61.4112   93.3768    8.4961 H         1 UNK         0.0000 
  15876 H(5)       62.5540   89.0239    9.2841 H         1 UNK         0.0000 
  15877 H(6)       62.3181   95.3344    9.1910 H         1 UNK         0.0000 
  15878 H(7)       63.8722   97.7734   10.2352 H         1 UNK         0.0000 
  15879 H(8)       62.7972   97.4085    8.9420 H         1 UNK         0.0000 
  15880 H(9)       64.4745   97.8280    8.6612 H         1 UNK         0.0000 
  15881 O(1)       53.6073  101.6042   15.5017 O.3       1 UNK         0.0000 
  15882 O(2)       55.6051  102.8443    9.4577 O.2       1 UNK         0.0000 
  15883 N(1)       53.4240  102.8949   10.0886 N.am      1 UNK         0.0000 
  15884 C(1)       53.5234  102.5360   11.4515 C.ar      1 UNK         0.0000 
  15885 C(2)       54.6056  101.8501   12.0027 C.ar      1 UNK         0.0000 
  15886 C(3)       54.6126  101.5414   13.3599 C.ar      1 UNK         0.0000 
  15887 C(4)       53.5426  101.9040   14.1738 C.ar      1 UNK         0.0000 
  15888 C(5)       52.4470  102.5624   13.6167 C.ar      1 UNK         0.0000 
  15889 C(6)       52.4417  102.8753   12.2649 C.ar      1 UNK         0.0000 
  15890 C(7)       54.4147  103.0478    9.1951 C.2       1 UNK         0.0000 
  15891 C(8)       53.9739  103.4804    7.8224 C.3       1 UNK         0.0000 
  15892 H(1)       55.4461  101.5645   11.3824 H         1 UNK         0.0000 
  15893 H(2)       55.4634  101.0115   13.7701 H         1 UNK         0.0000 
  15894 H(3)       51.6038  102.8325   14.2404 H         1 UNK         0.0000 
  15895 H(4)       51.5910  103.3883   11.8334 H         1 UNK         0.0000 
  15896 H(5)       52.7338  101.6647   15.9075 H         1 UNK         0.0000 
  15897 H(6)       52.4980  103.1397    9.7711 H         1 UNK         0.0000 
  15898 H(7)       54.0521  102.6559    7.1624 H         1 UNK         0.0000 
  15899 H(8)       52.9771  103.8375    7.8021 H         1 UNK         0.0000 
  15900 H(9)       54.6544  104.2035    7.4544 H         1 UNK         0.0000 
  15901 O(1)       54.7400   98.2434   12.3169 O.3       1 UNK         0.0000 
  15902 O(2)       52.7422   92.0746   12.2011 O.2       1 UNK         0.0000 
  15903 N(1)       54.9233   92.6790   12.3888 N.am      1 UNK         0.0000 
  15904 C(1)       54.8239   94.0874   12.3376 C.ar      1 UNK         0.0000 
  15905 C(2)       53.7417   94.7757   11.7893 C.ar      1 UNK         0.0000 
  15906 C(3)       53.7347   96.1675   11.7858 C.ar      1 UNK         0.0000 
  15907 C(4)       54.8047   96.8821   12.3181 C.ar      1 UNK         0.0000 
  15908 C(5)       55.9003   96.1941   12.8383 C.ar      1 UNK         0.0000 
  15909 C(6)       55.9056   94.8066   12.8470 C.ar      1 UNK         0.0000 
  15910 C(7)       53.9326   91.7737   12.3420 C.2       1 UNK         0.0000 
  15911 C(8)       54.3734   90.3396   12.4630 C.3       1 UNK         0.0000 
  15912 H(1)       52.9012   94.2331   11.3746 H         1 UNK         0.0000 
  15913 H(2)       52.8839   96.6839   11.3587 H         1 UNK         0.0000 
  15914 H(3)       56.7435   96.7434   13.2386 H         1 UNK         0.0000 
  15915 H(4)       56.7563   94.2731   13.2530 H         1 UNK         0.0000 
  15916 H(5)       55.6134   98.6260   12.4649 H         1 UNK         0.0000 
  15917 H(6)       55.8493   92.3155   12.5580 H         1 UNK         0.0000 
  15918 H(7)       54.2952   89.8765   11.5138 H         1 UNK         0.0000 
  15919 H(8)       55.3702   90.2414   12.8070 H         1 UNK         0.0000 
  15920 H(9)       53.6929   89.8219   13.0878 H         1 UNK         0.0000 
  15921 O(1)       59.0739  106.4590   13.4097 O.3       1 UNK         0.0000 
  15922 O(2)       57.0761  105.2189   19.4537 O.2       1 UNK         0.0000 
  15923 N(1)       59.2572  105.1683   18.8228 N.am      1 UNK         0.0000 
  15924 C(1)       59.1578  105.5272   17.4599 C.ar      1 UNK         0.0000 
  15925 C(2)       58.0756  106.2131   16.9087 C.ar      1 UNK         0.0000 
  15926 C(3)       58.0686  106.5218   15.5516 C.ar      1 UNK         0.0000 
  15927 C(4)       59.1386  106.1592   14.7376 C.ar      1 UNK         0.0000 
  15928 C(5)       60.2342  105.5008   15.2947 C.ar      1 UNK         0.0000 
  15929 C(6)       60.2395  105.1879   16.6465 C.ar      1 UNK         0.0000 
  15930 C(7)       58.2665  105.0154   19.7163 C.2       1 UNK         0.0000 
  15931 C(8)       58.7073  104.5828   21.0890 C.3       1 UNK         0.0000 
  15932 H(1)       57.2351  106.4987   17.5290 H         1 UNK         0.0000 
  15933 H(2)       57.2178  107.0517   15.1413 H         1 UNK         0.0000 
  15934 H(3)       61.0774  105.2307   14.6710 H         1 UNK         0.0000 
  15935 H(4)       61.0901  104.6748   17.0780 H         1 UNK         0.0000 
  15936 H(5)       59.9473  106.3985   13.0039 H         1 UNK         0.0000 
  15937 H(6)       60.1832  104.9235   19.1403 H         1 UNK         0.0000 
  15938 H(7)       58.6290  105.4073   21.7490 H         1 UNK         0.0000 
  15939 H(8)       59.7041  104.2257   21.1093 H         1 UNK         0.0000 
  15940 H(9)       58.0268  103.8597   21.4570 H         1 UNK         0.0000 
  15941 O(1)       63.4274   95.1375   16.5945 O.3       1 UNK         0.0000 
  15942 O(2)       65.4252  101.3063   16.7103 O.2       1 UNK         0.0000 
  15943 N(1)       63.2441  100.7019   16.5226 N.am      1 UNK         0.0000 
  15944 C(1)       63.3435   99.2934   16.5738 C.ar      1 UNK         0.0000 
  15945 C(2)       64.4257   98.6052   17.1221 C.ar      1 UNK         0.0000 
  15946 C(3)       64.4327   97.2134   17.1257 C.ar      1 UNK         0.0000 
  15947 C(4)       63.3627   96.4988   16.5933 C.ar      1 UNK         0.0000 
  15948 C(5)       62.2671   97.1867   16.0731 C.ar      1 UNK         0.0000 
  15949 C(6)       62.2618   98.5743   16.0644 C.ar      1 UNK         0.0000 
  15950 C(7)       64.2348  101.6072   16.5694 C.2       1 UNK         0.0000 
  15951 C(8)       63.7940  103.0413   16.4484 C.3       1 UNK         0.0000 
  15952 H(1)       65.2662   99.1477   17.5368 H         1 UNK         0.0000 
  15953 H(2)       65.2835   96.6969   17.5527 H         1 UNK         0.0000 
  15954 H(3)       61.4239   96.6375   15.6728 H         1 UNK         0.0000 
  15955 H(4)       61.4112   99.1078   15.6585 H         1 UNK         0.0000 
  15956 H(5)       62.5540   94.7549   16.4465 H         1 UNK         0.0000 
  15957 H(6)       62.3181  101.0653   16.3534 H         1 UNK         0.0000 
  15958 H(7)       63.8722  103.5044   17.3976 H         1 UNK         0.0000 
  15959 H(8)       62.7972  103.1394   16.1044 H         1 UNK         0.0000 
  15960 H(9)       64.4745  103.5590   15.8236 H         1 UNK         0.0000 
  15961 O(1)       59.0935   92.6529   22.6641 O.3       1 UNK         0.0000 
  15962 O(2)       61.0913   93.8929   16.6201 O.2       1 UNK         0.0000 
  15963 N(1)       58.9102   93.9436   17.2510 N.am      1 UNK         0.0000 
  15964 C(1)       59.0096   93.5847   18.6139 C.ar      1 UNK         0.0000 
  15965 C(2)       60.0918   92.8988   19.1651 C.ar      1 UNK         0.0000 
  15966 C(3)       60.0988   92.5900   20.5223 C.ar      1 UNK         0.0000 
  15967 C(4)       59.0288   92.9527   21.3362 C.ar      1 UNK         0.0000 
  15968 C(5)       57.9332   93.6110   20.7791 C.ar      1 UNK         0.0000 
  15969 C(6)       57.9279   93.9239   19.4273 C.ar      1 UNK         0.0000 
  15970 C(7)       59.9010   94.0964   16.3575 C.2       1 UNK         0.0000 
  15971 C(8)       59.4601   94.5290   14.9848 C.3       1 UNK         0.0000 
  15972 H(1)       60.9323   92.6131   18.5448 H         1 UNK         0.0000 
  15973 H(2)       60.9496   92.0601   20.9325 H         1 UNK         0.0000 
  15974 H(3)       57.0900   93.8811   21.4028 H         1 UNK         0.0000 
  15975 H(4)       57.0773   94.4370   18.9958 H         1 UNK         0.0000 
  15976 H(5)       58.2201   92.7134   23.0699 H         1 UNK         0.0000 
  15977 H(6)       57.9842   94.1883   16.9335 H         1 UNK         0.0000 
  15978 H(7)       59.5384   93.7046   14.3248 H         1 UNK         0.0000 
  15979 H(8)       58.4633   94.8862   14.9645 H         1 UNK         0.0000 
  15980 H(9)       60.1406   95.2521   14.6168 H         1 UNK         0.0000 
  15981 O(1)       61.8170  103.9743   19.4793 O.3       1 UNK         0.0000 
  15982 O(2)       59.8192   97.8056   19.3635 O.2       1 UNK         0.0000 
  15983 N(1)       62.0003   98.4100   19.5512 N.am      1 UNK         0.0000 
  15984 C(1)       61.9009   99.8184   19.5000 C.ar      1 UNK         0.0000 
  15985 C(2)       60.8187  100.5066   18.9517 C.ar      1 UNK         0.0000 
  15986 C(3)       60.8117  101.8984   18.9482 C.ar      1 UNK         0.0000 
  15987 C(4)       61.8817  102.6130   19.4805 C.ar      1 UNK         0.0000 
  15988 C(5)       62.9773  101.9251   20.0007 C.ar      1 UNK         0.0000 
  15989 C(6)       62.9826  100.5376   20.0094 C.ar      1 UNK         0.0000 
  15990 C(7)       61.0096   97.5047   19.5044 C.2       1 UNK         0.0000 
  15991 C(8)       61.4504   96.0705   19.6254 C.3       1 UNK         0.0000 
  15992 H(1)       59.9782   99.9641   18.5370 H         1 UNK         0.0000 
  15993 H(2)       59.9609  102.4149   18.5211 H         1 UNK         0.0000 
  15994 H(3)       63.8205  102.4744   20.4010 H         1 UNK         0.0000 
  15995 H(4)       63.8333  100.0041   20.4154 H         1 UNK         0.0000 
  15996 H(5)       62.6904  104.3570   19.6273 H         1 UNK         0.0000 
  15997 H(6)       62.9263   98.0465   19.7204 H         1 UNK         0.0000 
  15998 H(7)       61.3722   95.6074   18.6762 H         1 UNK         0.0000 
  15999 H(8)       62.4472   95.9724   19.9694 H         1 UNK         0.0000 
  16000 H(9)       60.7699   95.5529   20.2502 H         1 UNK         0.0000 
  16001 O(1)       57.4831   97.5076   20.5721 O.3       1 UNK         0.0000 
  16002 O(2)       55.4853   96.2675   26.6161 O.2       1 UNK         0.0000 
  16003 N(1)       57.6664   96.2169   25.9852 N.am      1 UNK         0.0000 
  16004 C(1)       57.5670   96.5758   24.6223 C.ar      1 UNK         0.0000 
  16005 C(2)       56.4848   97.2617   24.0711 C.ar      1 UNK         0.0000 
  16006 C(3)       56.4778   97.5705   22.7140 C.ar      1 UNK         0.0000 
  16007 C(4)       57.5478   97.2078   21.9000 C.ar      1 UNK         0.0000 
  16008 C(5)       58.6434   96.5494   22.4571 C.ar      1 UNK         0.0000 
  16009 C(6)       58.6487   96.2365   23.8089 C.ar      1 UNK         0.0000 
  16010 C(7)       56.6757   96.0641   26.8787 C.2       1 UNK         0.0000 
  16011 C(8)       57.1165   95.6314   28.2514 C.3       1 UNK         0.0000 
  16012 H(1)       55.6443   97.5474   24.6914 H         1 UNK         0.0000 
  16013 H(2)       55.6270   98.1004   22.3037 H         1 UNK         0.0000 
  16014 H(3)       59.4866   96.2793   21.8334 H         1 UNK         0.0000 
  16015 H(4)       59.4994   95.7235   24.2404 H         1 UNK         0.0000 
  16016 H(5)       58.3566   97.4471   20.1663 H         1 UNK         0.0000 
  16017 H(6)       58.5924   95.9722   26.3027 H         1 UNK         0.0000 
  16018 H(7)       57.0383   96.4559   28.9114 H         1 UNK         0.0000 
  16019 H(8)       58.1133   95.2743   28.2717 H         1 UNK         0.0000 
  16020 H(9)       56.4360   94.9083   28.6194 H         1 UNK         0.0000 
  16021 O(1)       56.3504  100.8684   23.7569 O.3       1 UNK         0.0000 
  16022 O(2)       58.3482  107.0372   23.8727 O.2       1 UNK         0.0000 
  16023 N(1)       56.1671  106.4328   23.6850 N.am      1 UNK         0.0000 
  16024 C(1)       56.2665  105.0244   23.7362 C.ar      1 UNK         0.0000 
  16025 C(2)       57.3487  104.3362   24.2845 C.ar      1 UNK         0.0000 
  16026 C(3)       57.3557  102.9444   24.2881 C.ar      1 UNK         0.0000 
  16027 C(4)       56.2857  102.2298   23.7557 C.ar      1 UNK         0.0000 
  16028 C(5)       55.1901  102.9177   23.2355 C.ar      1 UNK         0.0000 
  16029 C(6)       55.1848  104.3052   23.2268 C.ar      1 UNK         0.0000 
  16030 C(7)       57.1578  107.3381   23.7318 C.2       1 UNK         0.0000 
  16031 C(8)       56.7170  108.7723   23.6108 C.3       1 UNK         0.0000 
  16032 H(1)       58.1892  104.8787   24.6992 H         1 UNK         0.0000 
  16033 H(2)       58.2065  102.4279   24.7151 H         1 UNK         0.0000 
  16034 H(3)       54.3469  102.3684   22.8352 H         1 UNK         0.0000 
  16035 H(4)       54.3342  104.8387   22.8209 H         1 UNK         0.0000 
  16036 H(5)       55.4770  100.4858   23.6089 H         1 UNK         0.0000 
  16037 H(6)       55.2411  106.7963   23.5158 H         1 UNK         0.0000 
  16038 H(7)       56.7952  109.2354   24.5600 H         1 UNK         0.0000 
  16039 H(8)       55.7202  108.8704   23.2668 H         1 UNK         0.0000 
  16040 H(9)       57.3975  109.2899   22.9860 H         1 UNK         0.0000 
  16041 O(1)       60.6843   95.8732    8.3393 O.3       1 UNK         0.0000 
  16042 O(2)       62.6821   97.1133    2.2953 O.2       1 UNK         0.0000 
  16043 N(1)       60.5010   97.1640    2.9262 N.am      1 UNK         0.0000 
  16044 C(1)       60.6004   96.8050    4.2891 C.ar      1 UNK         0.0000 
  16045 C(2)       61.6826   96.1192    4.8403 C.ar      1 UNK         0.0000 
  16046 C(3)       61.6896   95.8104    6.1975 C.ar      1 UNK         0.0000 
  16047 C(4)       60.6196   96.1731    7.0114 C.ar      1 UNK         0.0000 
  16048 C(5)       59.5240   96.8314    6.4543 C.ar      1 UNK         0.0000 
  16049 C(6)       59.5187   97.1443    5.1025 C.ar      1 UNK         0.0000 
  16050 C(7)       61.4917   97.3168    2.0327 C.2       1 UNK         0.0000 
  16051 C(8)       61.0509   97.7494    0.6600 C.3       1 UNK         0.0000 
  16052 H(1)       62.5231   95.8335    4.2200 H         1 UNK         0.0000 
  16053 H(2)       62.5404   95.2805    6.6077 H         1 UNK         0.0000 
  16054 H(3)       58.6808   97.1015    7.0780 H         1 UNK         0.0000 
  16055 H(4)       58.6680   97.6574    4.6710 H         1 UNK         0.0000 
  16056 H(5)       59.8109   95.9338    8.7451 H         1 UNK         0.0000 
  16057 H(6)       59.5750   97.4087    2.6087 H         1 UNK         0.0000 
  16058 H(7)       61.1291   96.9250    0.0000 H         1 UNK         0.0000 
  16059 H(8)       60.0541   98.1066    0.6397 H         1 UNK         0.0000 
  16060 H(9)       61.7314   98.4725    0.2920 H         1 UNK         0.0000 
  16061 O(1)       63.4078  107.1947    5.1545 O.3       1 UNK         0.0000 
  16062 O(2)       61.4100  101.0260    5.0387 O.2       1 UNK         0.0000 
  16063 N(1)       63.5911  101.6304    5.2264 N.am      1 UNK         0.0000 
  16064 C(1)       63.4917  103.0388    5.1752 C.ar      1 UNK         0.0000 
  16065 C(2)       62.4095  103.7270    4.6269 C.ar      1 UNK         0.0000 
  16066 C(3)       62.4025  105.1188    4.6234 C.ar      1 UNK         0.0000 
  16067 C(4)       63.4725  105.8334    5.1557 C.ar      1 UNK         0.0000 
  16068 C(5)       64.5681  105.1455    5.6759 C.ar      1 UNK         0.0000 
  16069 C(6)       64.5734  103.7580    5.6846 C.ar      1 UNK         0.0000 
  16070 C(7)       62.6003  100.7251    5.1796 C.2       1 UNK         0.0000 
  16071 C(8)       63.0412   99.2909    5.3006 C.3       1 UNK         0.0000 
  16072 H(1)       61.5690  103.1845    4.2122 H         1 UNK         0.0000 
  16073 H(2)       61.5517  105.6353    4.1963 H         1 UNK         0.0000 
  16074 H(3)       65.4113  105.6948    6.0762 H         1 UNK         0.0000 
  16075 H(4)       65.4240  103.2245    6.0906 H         1 UNK         0.0000 
  16076 H(5)       64.2812  107.5773    5.3025 H         1 UNK         0.0000 
  16077 H(6)       64.5171  101.2669    5.3956 H         1 UNK         0.0000 
  16078 H(7)       62.9629   98.8278    4.3514 H         1 UNK         0.0000 
  16079 H(8)       64.0380   99.1928    5.6446 H         1 UNK         0.0000 
  16080 H(9)       62.3607   98.7733    5.9254 H         1 UNK         0.0000 
  16081 O(1)       60.6647  115.4103    6.2473 O.3       1 UNK         0.0000 
  16082 O(2)       58.6669  114.1703   12.2913 O.2       1 UNK         0.0000 
  16083 N(1)       60.8480  114.1196   11.6604 N.am      1 UNK         0.0000 
  16084 C(1)       60.7486  114.4785   10.2975 C.ar      1 UNK         0.0000 
  16085 C(2)       59.6664  115.1644    9.7463 C.ar      1 UNK         0.0000 
  16086 C(3)       59.6594  115.4732    8.3892 C.ar      1 UNK         0.0000 
  16087 C(4)       60.7294  115.1105    7.5752 C.ar      1 UNK         0.0000 
  16088 C(5)       61.8250  114.4521    8.1323 C.ar      1 UNK         0.0000 
  16089 C(6)       61.8303  114.1393    9.4841 C.ar      1 UNK         0.0000 
  16090 C(7)       59.8572  113.9668   12.5539 C.2       1 UNK         0.0000 
  16091 C(8)       60.2981  113.5342   13.9266 C.3       1 UNK         0.0000 
  16092 H(1)       58.8259  115.4501   10.3666 H         1 UNK         0.0000 
  16093 H(2)       58.8086  116.0031    7.9789 H         1 UNK         0.0000 
  16094 H(3)       62.6682  114.1821    7.5086 H         1 UNK         0.0000 
  16095 H(4)       62.6809  113.6262    9.9156 H         1 UNK         0.0000 
  16096 H(5)       61.5381  115.3498    5.8415 H         1 UNK         0.0000 
  16097 H(6)       61.7740  113.8749   11.9779 H         1 UNK         0.0000 
  16098 H(7)       60.2198  114.3586   14.5866 H         1 UNK         0.0000 
  16099 H(8)       61.2949  113.1770   13.9469 H         1 UNK         0.0000 
  16100 H(9)       59.6176  112.8111   14.2946 H         1 UNK         0.0000 
  16101 O(1)       65.0182  104.0888    9.4321 O.3       1 UNK         0.0000 
  16102 O(2)       67.0160  110.2576    9.5479 O.2       1 UNK         0.0000 
  16103 N(1)       64.8348  109.6532    9.3602 N.am      1 UNK         0.0000 
  16104 C(1)       64.9343  108.2448    9.4114 C.ar      1 UNK         0.0000 
  16105 C(2)       66.0165  107.5566    9.9597 C.ar      1 UNK         0.0000 
  16106 C(3)       66.0235  106.1648    9.9633 C.ar      1 UNK         0.0000 
  16107 C(4)       64.9535  105.4502    9.4309 C.ar      1 UNK         0.0000 
  16108 C(5)       63.8579  106.1381    8.9107 C.ar      1 UNK         0.0000 
  16109 C(6)       63.8526  107.5256    8.9020 C.ar      1 UNK         0.0000 
  16110 C(7)       65.8256  110.5585    9.4070 C.2       1 UNK         0.0000 
  16111 C(8)       65.3848  111.9927    9.2860 C.3       1 UNK         0.0000 
  16112 H(1)       66.8570  108.0991   10.3744 H         1 UNK         0.0000 
  16113 H(2)       66.8743  105.6483   10.3903 H         1 UNK         0.0000 
  16114 H(3)       63.0147  105.5888    8.5104 H         1 UNK         0.0000 
  16115 H(4)       63.0019  108.0591    8.4961 H         1 UNK         0.0000 
  16116 H(5)       64.1447  103.7062    9.2841 H         1 UNK         0.0000 
  16117 H(6)       63.9089  110.0167    9.1910 H         1 UNK         0.0000 
  16118 H(7)       65.4630  112.4558   10.2352 H         1 UNK         0.0000 
  16119 H(8)       64.3880  112.0908    8.9420 H         1 UNK         0.0000 
  16120 H(9)       66.0652  112.5103    8.6612 H         1 UNK         0.0000 
  16121 O(1)       55.1981  116.2865   15.5017 O.3       1 UNK         0.0000 
  16122 O(2)       57.1959  117.5266    9.4577 O.2       1 UNK         0.0000 
  16123 N(1)       55.0147  117.5773   10.0886 N.am      1 UNK         0.0000 
  16124 C(1)       55.1142  117.2183   11.4515 C.ar      1 UNK         0.0000 
  16125 C(2)       56.1963  116.5325   12.0027 C.ar      1 UNK         0.0000 
  16126 C(3)       56.2034  116.2237   13.3599 C.ar      1 UNK         0.0000 
  16127 C(4)       55.1334  116.5864   14.1738 C.ar      1 UNK         0.0000 
  16128 C(5)       54.0377  117.2447   13.6167 C.ar      1 UNK         0.0000 
  16129 C(6)       54.0324  117.5576   12.2649 C.ar      1 UNK         0.0000 
  16130 C(7)       56.0055  117.7301    9.1951 C.2       1 UNK         0.0000 
  16131 C(8)       55.5647  118.1627    7.8224 C.3       1 UNK         0.0000 
  16132 H(1)       57.0369  116.2468   11.3824 H         1 UNK         0.0000 
  16133 H(2)       57.0542  115.6938   13.7701 H         1 UNK         0.0000 
  16134 H(3)       53.1946  117.5148   14.2404 H         1 UNK         0.0000 
  16135 H(4)       53.1818  118.0707   11.8334 H         1 UNK         0.0000 
  16136 H(5)       54.3246  116.3471   15.9075 H         1 UNK         0.0000 
  16137 H(6)       54.0888  117.8220    9.7711 H         1 UNK         0.0000 
  16138 H(7)       55.6429  117.3383    7.1624 H         1 UNK         0.0000 
  16139 H(8)       54.5679  118.5199    7.8021 H         1 UNK         0.0000 
  16140 H(9)       56.2451  118.8858    7.4544 H         1 UNK         0.0000 
  16141 O(1)       56.3308  112.9257   12.3169 O.3       1 UNK         0.0000 
  16142 O(2)       54.3330  106.7569   12.2011 O.2       1 UNK         0.0000 
  16143 N(1)       56.5141  107.3613   12.3888 N.am      1 UNK         0.0000 
  16144 C(1)       56.4147  108.7698   12.3376 C.ar      1 UNK         0.0000 
  16145 C(2)       55.3325  109.4580   11.7893 C.ar      1 UNK         0.0000 
  16146 C(3)       55.3255  110.8498   11.7858 C.ar      1 UNK         0.0000 
  16147 C(4)       56.3955  111.5644   12.3181 C.ar      1 UNK         0.0000 
  16148 C(5)       57.4911  110.8765   12.8383 C.ar      1 UNK         0.0000 
  16149 C(6)       57.4964  109.4889   12.8470 C.ar      1 UNK         0.0000 
  16150 C(7)       55.5233  106.4560   12.3420 C.2       1 UNK         0.0000 
  16151 C(8)       55.9642  105.0219   12.4630 C.3       1 UNK         0.0000 
  16152 H(1)       54.4920  108.9154   11.3746 H         1 UNK         0.0000 
  16153 H(2)       54.4747  111.3663   11.3587 H         1 UNK         0.0000 
  16154 H(3)       58.3343  111.4257   13.2386 H         1 UNK         0.0000 
  16155 H(4)       58.3470  108.9554   13.2530 H         1 UNK         0.0000 
  16156 H(5)       57.2042  113.3083   12.4649 H         1 UNK         0.0000 
  16157 H(6)       57.4401  106.9979   12.5580 H         1 UNK         0.0000 
  16158 H(7)       55.8859  104.5588   11.5138 H         1 UNK         0.0000 
  16159 H(8)       56.9610  104.9238   12.8070 H         1 UNK         0.0000 
  16160 H(9)       55.2837  104.5042   13.0878 H         1 UNK         0.0000 
  16161 O(1)       60.6647  121.1413   13.4097 O.3       1 UNK         0.0000 
  16162 O(2)       58.6669  119.9012   19.4537 O.2       1 UNK         0.0000 
  16163 N(1)       60.8480  119.8506   18.8228 N.am      1 UNK         0.0000 
  16164 C(1)       60.7486  120.2095   17.4599 C.ar      1 UNK         0.0000 
  16165 C(2)       59.6664  120.8954   16.9087 C.ar      1 UNK         0.0000 
  16166 C(3)       59.6594  121.2042   15.5516 C.ar      1 UNK         0.0000 
  16167 C(4)       60.7294  120.8415   14.7376 C.ar      1 UNK         0.0000 
  16168 C(5)       61.8250  120.1831   15.2947 C.ar      1 UNK         0.0000 
  16169 C(6)       61.8303  119.8702   16.6465 C.ar      1 UNK         0.0000 
  16170 C(7)       59.8572  119.6978   19.7163 C.2       1 UNK         0.0000 
  16171 C(8)       60.2981  119.2651   21.0890 C.3       1 UNK         0.0000 
  16172 H(1)       58.8259  121.1810   17.5290 H         1 UNK         0.0000 
  16173 H(2)       58.8086  121.7341   15.1413 H         1 UNK         0.0000 
  16174 H(3)       62.6682  119.9130   14.6710 H         1 UNK         0.0000 
  16175 H(4)       62.6809  119.3572   17.0780 H         1 UNK         0.0000 
  16176 H(5)       61.5381  121.0808   13.0039 H         1 UNK         0.0000 
  16177 H(6)       61.7740  119.6059   19.1403 H         1 UNK         0.0000 
  16178 H(7)       60.2198  120.0896   21.7490 H         1 UNK         0.0000 
  16179 H(8)       61.2949  118.9080   21.1093 H         1 UNK         0.0000 
  16180 H(9)       59.6176  118.5420   21.4570 H         1 UNK         0.0000 
  16181 O(1)       65.0182  109.8198   16.5945 O.3       1 UNK         0.0000 
  16182 O(2)       67.0160  115.9886   16.7103 O.2       1 UNK         0.0000 
  16183 N(1)       64.8348  115.3842   16.5226 N.am      1 UNK         0.0000 
  16184 C(1)       64.9343  113.9758   16.5738 C.ar      1 UNK         0.0000 
  16185 C(2)       66.0165  113.2875   17.1221 C.ar      1 UNK         0.0000 
  16186 C(3)       66.0235  111.8957   17.1257 C.ar      1 UNK         0.0000 
  16187 C(4)       64.9535  111.1811   16.5933 C.ar      1 UNK         0.0000 
  16188 C(5)       63.8579  111.8690   16.0731 C.ar      1 UNK         0.0000 
  16189 C(6)       63.8526  113.2566   16.0644 C.ar      1 UNK         0.0000 
  16190 C(7)       65.8256  116.2895   16.5694 C.2       1 UNK         0.0000 
  16191 C(8)       65.3848  117.7236   16.4484 C.3       1 UNK         0.0000 
  16192 H(1)       66.8570  113.8301   17.5368 H         1 UNK         0.0000 
  16193 H(2)       66.8743  111.3793   17.5527 H         1 UNK         0.0000 
  16194 H(3)       63.0147  111.3198   15.6728 H         1 UNK         0.0000 
  16195 H(4)       63.0019  113.7901   15.6585 H         1 UNK         0.0000 
  16196 H(5)       64.1447  109.4372   16.4465 H         1 UNK         0.0000 
  16197 H(6)       63.9089  115.7477   16.3534 H         1 UNK         0.0000 
  16198 H(7)       65.4630  118.1867   17.3976 H         1 UNK         0.0000 
  16199 H(8)       64.3880  117.8218   16.1044 H         1 UNK         0.0000 
  16200 H(9)       66.0652  118.2413   15.8236 H         1 UNK         0.0000 
  16201 O(1)       60.6843  107.3352   22.6641 O.3       1 UNK         0.0000 
  16202 O(2)       62.6821  108.5753   16.6201 O.2       1 UNK         0.0000 
  16203 N(1)       60.5010  108.6259   17.2510 N.am      1 UNK         0.0000 
  16204 C(1)       60.6004  108.2670   18.6139 C.ar      1 UNK         0.0000 
  16205 C(2)       61.6826  107.5811   19.1651 C.ar      1 UNK         0.0000 
  16206 C(3)       61.6896  107.2723   20.5223 C.ar      1 UNK         0.0000 
  16207 C(4)       60.6196  107.6350   21.3362 C.ar      1 UNK         0.0000 
  16208 C(5)       59.5240  108.2934   20.7791 C.ar      1 UNK         0.0000 
  16209 C(6)       59.5187  108.6062   19.4273 C.ar      1 UNK         0.0000 
  16210 C(7)       61.4917  108.7787   16.3575 C.2       1 UNK         0.0000 
  16211 C(8)       61.0509  109.2114   14.9848 C.3       1 UNK         0.0000 
  16212 H(1)       62.5231  107.2954   18.5448 H         1 UNK         0.0000 
  16213 H(2)       62.5404  106.7424   20.9325 H         1 UNK         0.0000 
  16214 H(3)       58.6808  108.5635   21.4028 H         1 UNK         0.0000 
  16215 H(4)       58.6680  109.1193   18.9958 H         1 UNK         0.0000 
  16216 H(5)       59.8109  107.3957   23.0699 H         1 UNK         0.0000 
  16217 H(6)       59.5750  108.8706   16.9335 H         1 UNK         0.0000 
  16218 H(7)       61.1291  108.3869   14.3248 H         1 UNK         0.0000 
  16219 H(8)       60.0541  109.5685   14.9645 H         1 UNK         0.0000 
  16220 H(9)       61.7314  109.9345   14.6168 H         1 UNK         0.0000 
  16221 O(1)       63.4078  118.6567   19.4793 O.3       1 UNK         0.0000 
  16222 O(2)       61.4100  112.4879   19.3635 O.2       1 UNK         0.0000 
  16223 N(1)       63.5911  113.0923   19.5512 N.am      1 UNK         0.0000 
  16224 C(1)       63.4917  114.5007   19.5000 C.ar      1 UNK         0.0000 
  16225 C(2)       62.4095  115.1890   18.9517 C.ar      1 UNK         0.0000 
  16226 C(3)       62.4025  116.5808   18.9482 C.ar      1 UNK         0.0000 
  16227 C(4)       63.4725  117.2954   19.4805 C.ar      1 UNK         0.0000 
  16228 C(5)       64.5681  116.6074   20.0007 C.ar      1 UNK         0.0000 
  16229 C(6)       64.5734  115.2199   20.0094 C.ar      1 UNK         0.0000 
  16230 C(7)       62.6003  112.1870   19.5044 C.2       1 UNK         0.0000 
  16231 C(8)       63.0412  110.7529   19.6254 C.3       1 UNK         0.0000 
  16232 H(1)       61.5690  114.6464   18.5370 H         1 UNK         0.0000 
  16233 H(2)       61.5517  117.0972   18.5211 H         1 UNK         0.0000 
  16234 H(3)       65.4113  117.1567   20.4010 H         1 UNK         0.0000 
  16235 H(4)       65.4240  114.6864   20.4154 H         1 UNK         0.0000 
  16236 H(5)       64.2812  119.0393   19.6273 H         1 UNK         0.0000 
  16237 H(6)       64.5171  112.7288   19.7204 H         1 UNK         0.0000 
  16238 H(7)       62.9629  110.2898   18.6762 H         1 UNK         0.0000 
  16239 H(8)       64.0380  110.6547   19.9694 H         1 UNK         0.0000 
  16240 H(9)       62.3607  110.2352   20.2502 H         1 UNK         0.0000 
  16241 O(1)       59.0739  112.1899   20.5721 O.3       1 UNK         0.0000 
  16242 O(2)       57.0761  110.9499   26.6161 O.2       1 UNK         0.0000 
  16243 N(1)       59.2572  110.8992   25.9852 N.am      1 UNK         0.0000 
  16244 C(1)       59.1578  111.2581   24.6223 C.ar      1 UNK         0.0000 
  16245 C(2)       58.0756  111.9440   24.0711 C.ar      1 UNK         0.0000 
  16246 C(3)       58.0686  112.2528   22.7140 C.ar      1 UNK         0.0000 
  16247 C(4)       59.1386  111.8901   21.9000 C.ar      1 UNK         0.0000 
  16248 C(5)       60.2342  111.2318   22.4571 C.ar      1 UNK         0.0000 
  16249 C(6)       60.2395  110.9189   23.8089 C.ar      1 UNK         0.0000 
  16250 C(7)       58.2665  110.7464   26.8787 C.2       1 UNK         0.0000 
  16251 C(8)       58.7073  110.3138   28.2514 C.3       1 UNK         0.0000 
  16252 H(1)       57.2351  112.2297   24.6914 H         1 UNK         0.0000 
  16253 H(2)       57.2178  112.7827   22.3037 H         1 UNK         0.0000 
  16254 H(3)       61.0774  110.9617   21.8334 H         1 UNK         0.0000 
  16255 H(4)       61.0901  110.4058   24.2404 H         1 UNK         0.0000 
  16256 H(5)       59.9473  112.1294   20.1663 H         1 UNK         0.0000 
  16257 H(6)       60.1832  110.6545   26.3027 H         1 UNK         0.0000 
  16258 H(7)       58.6290  111.1382   28.9114 H         1 UNK         0.0000 
  16259 H(8)       59.7041  109.9566   28.2717 H         1 UNK         0.0000 
  16260 H(9)       58.0268  109.5907   28.6194 H         1 UNK         0.0000 
  16261 O(1)       57.9412  115.5508   23.7569 O.3       1 UNK         0.0000 
  16262 O(2)       59.9390  121.7196   23.8727 O.2       1 UNK         0.0000 
  16263 N(1)       57.7578  121.1152   23.6850 N.am      1 UNK         0.0000 
  16264 C(1)       57.8573  119.7067   23.7362 C.ar      1 UNK         0.0000 
  16265 C(2)       58.9395  119.0185   24.2845 C.ar      1 UNK         0.0000 
  16266 C(3)       58.9465  117.6267   24.2881 C.ar      1 UNK         0.0000 
  16267 C(4)       57.8765  116.9121   23.7557 C.ar      1 UNK         0.0000 
  16268 C(5)       56.7809  117.6000   23.2355 C.ar      1 UNK         0.0000 
  16269 C(6)       56.7756  118.9876   23.2268 C.ar      1 UNK         0.0000 
  16270 C(7)       58.7486  122.0205   23.7318 C.2       1 UNK         0.0000 
  16271 C(8)       58.3078  123.4546   23.6108 C.3       1 UNK         0.0000 
  16272 H(1)       59.7800  119.5610   24.6992 H         1 UNK         0.0000 
  16273 H(2)       59.7973  117.1102   24.7151 H         1 UNK         0.0000 
  16274 H(3)       55.9377  117.0508   22.8352 H         1 UNK         0.0000 
  16275 H(4)       55.9249  119.5211   22.8209 H         1 UNK         0.0000 
  16276 H(5)       57.0677  115.1682   23.6089 H         1 UNK         0.0000 
  16277 H(6)       56.8319  121.4786   23.5158 H         1 UNK         0.0000 
  16278 H(7)       58.3860  123.9177   24.5600 H         1 UNK         0.0000 
  16279 H(8)       57.3110  123.5527   23.2668 H         1 UNK         0.0000 
  16280 H(9)       58.9882  123.9723   22.9860 H         1 UNK         0.0000 
  16281 O(1)       62.2751  110.5556    8.3393 O.3       1 UNK         0.0000 
  16282 O(2)       64.2729  111.7957    2.2953 O.2       1 UNK         0.0000 
  16283 N(1)       62.0917  111.8463    2.9262 N.am      1 UNK         0.0000 
  16284 C(1)       62.1912  111.4874    4.2891 C.ar      1 UNK         0.0000 
  16285 C(2)       63.2733  110.8015    4.8403 C.ar      1 UNK         0.0000 
  16286 C(3)       63.2804  110.4927    6.1975 C.ar      1 UNK         0.0000 
  16287 C(4)       62.2104  110.8554    7.0114 C.ar      1 UNK         0.0000 
  16288 C(5)       61.1147  111.5138    6.4543 C.ar      1 UNK         0.0000 
  16289 C(6)       61.1094  111.8266    5.1025 C.ar      1 UNK         0.0000 
  16290 C(7)       63.0825  111.9991    2.0327 C.2       1 UNK         0.0000 
  16291 C(8)       62.6417  112.4318    0.6600 C.3       1 UNK         0.0000 
  16292 H(1)       64.1139  110.5158    4.2200 H         1 UNK         0.0000 
  16293 H(2)       64.1312  109.9628    6.6077 H         1 UNK         0.0000 
  16294 H(3)       60.2716  111.7839    7.0780 H         1 UNK         0.0000 
  16295 H(4)       60.2588  112.3397    4.6710 H         1 UNK         0.0000 
  16296 H(5)       61.4016  110.6161    8.7451 H         1 UNK         0.0000 
  16297 H(6)       61.1658  112.0910    2.6087 H         1 UNK         0.0000 
  16298 H(7)       62.7199  111.6073    0.0000 H         1 UNK         0.0000 
  16299 H(8)       61.6449  112.7889    0.6397 H         1 UNK         0.0000 
  16300 H(9)       63.3221  113.1549    0.2920 H         1 UNK         0.0000 
  16301 O(1)       64.9986  121.8771    5.1545 O.3       1 UNK         0.0000 
  16302 O(2)       63.0008  115.7083    5.0387 O.2       1 UNK         0.0000 
  16303 N(1)       65.1819  116.3127    5.2264 N.am      1 UNK         0.0000 
  16304 C(1)       65.0825  117.7211    5.1752 C.ar      1 UNK         0.0000 
  16305 C(2)       64.0003  118.4094    4.6269 C.ar      1 UNK         0.0000 
  16306 C(3)       63.9933  119.8012    4.6234 C.ar      1 UNK         0.0000 
  16307 C(4)       65.0633  120.5158    5.1557 C.ar      1 UNK         0.0000 
  16308 C(5)       66.1589  119.8278    5.6759 C.ar      1 UNK         0.0000 
  16309 C(6)       66.1642  118.4403    5.6846 C.ar      1 UNK         0.0000 
  16310 C(7)       64.1911  115.4074    5.1796 C.2       1 UNK         0.0000 
  16311 C(8)       64.6320  113.9733    5.3006 C.3       1 UNK         0.0000 
  16312 H(1)       63.1598  117.8668    4.2122 H         1 UNK         0.0000 
  16313 H(2)       63.1425  120.3176    4.1963 H         1 UNK         0.0000 
  16314 H(3)       67.0021  120.3771    6.0762 H         1 UNK         0.0000 
  16315 H(4)       67.0148  117.9068    6.0906 H         1 UNK         0.0000 
  16316 H(5)       65.8720  122.2597    5.3025 H         1 UNK         0.0000 
  16317 H(6)       66.1079  115.9492    5.3956 H         1 UNK         0.0000 
  16318 H(7)       64.5537  113.5102    4.3514 H         1 UNK         0.0000 
  16319 H(8)       65.6288  113.8751    5.6446 H         1 UNK         0.0000 
  16320 H(9)       63.9515  113.4556    5.9254 H         1 UNK         0.0000 
  16321 O(1)       62.2555  130.0927    6.2473 O.3       1 UNK         0.0000 
  16322 O(2)       60.2577  128.8526   12.2913 O.2       1 UNK         0.0000 
  16323 N(1)       62.4388  128.8020   11.6604 N.am      1 UNK         0.0000 
  16324 C(1)       62.3393  129.1609   10.2975 C.ar      1 UNK         0.0000 
  16325 C(2)       61.2572  129.8468    9.7463 C.ar      1 UNK         0.0000 
  16326 C(3)       61.2502  130.1555    8.3892 C.ar      1 UNK         0.0000 
  16327 C(4)       62.3202  129.7929    7.5752 C.ar      1 UNK         0.0000 
  16328 C(5)       63.4158  129.1345    8.1323 C.ar      1 UNK         0.0000 
  16329 C(6)       63.4211  128.8216    9.4841 C.ar      1 UNK         0.0000 
  16330 C(7)       61.4480  128.6491   12.5539 C.2       1 UNK         0.0000 
  16331 C(8)       61.8889  128.2165   13.9266 C.3       1 UNK         0.0000 
  16332 H(1)       60.4167  130.1324   10.3666 H         1 UNK         0.0000 
  16333 H(2)       60.3993  130.6854    7.9789 H         1 UNK         0.0000 
  16334 H(3)       64.2590  128.8644    7.5086 H         1 UNK         0.0000 
  16335 H(4)       64.2717  128.3085    9.9156 H         1 UNK         0.0000 
  16336 H(5)       63.1289  130.0322    5.8415 H         1 UNK         0.0000 
  16337 H(6)       63.3648  128.5572   11.9779 H         1 UNK         0.0000 
  16338 H(7)       61.8106  129.0410   14.5866 H         1 UNK         0.0000 
  16339 H(8)       62.8857  127.8594   13.9469 H         1 UNK         0.0000 
  16340 H(9)       61.2084  127.4934   14.2946 H         1 UNK         0.0000 
  16341 O(1)       66.6090  118.7712    9.4321 O.3       1 UNK         0.0000 
  16342 O(2)       68.6068  124.9400    9.5479 O.2       1 UNK         0.0000 
  16343 N(1)       66.4256  124.3356    9.3602 N.am      1 UNK         0.0000 
  16344 C(1)       66.5251  122.9271    9.4114 C.ar      1 UNK         0.0000 
  16345 C(2)       67.6072  122.2389    9.9597 C.ar      1 UNK         0.0000 
  16346 C(3)       67.6143  120.8471    9.9633 C.ar      1 UNK         0.0000 
  16347 C(4)       66.5442  120.1325    9.4309 C.ar      1 UNK         0.0000 
  16348 C(5)       65.4486  120.8204    8.9107 C.ar      1 UNK         0.0000 
  16349 C(6)       65.4433  122.2080    8.9020 C.ar      1 UNK         0.0000 
  16350 C(7)       67.4164  125.2409    9.4070 C.2       1 UNK         0.0000 
  16351 C(8)       66.9756  126.6750    9.2860 C.3       1 UNK         0.0000 
  16352 H(1)       68.4478  122.7814   10.3744 H         1 UNK         0.0000 
  16353 H(2)       68.4651  120.3306   10.3903 H         1 UNK         0.0000 
  16354 H(3)       64.6055  120.2712    8.5104 H         1 UNK         0.0000 
  16355 H(4)       64.5927  122.7415    8.4961 H         1 UNK         0.0000 
  16356 H(5)       65.7355  118.3886    9.2841 H         1 UNK         0.0000 
  16357 H(6)       65.4997  124.6990    9.1910 H         1 UNK         0.0000 
  16358 H(7)       67.0538  127.1381   10.2352 H         1 UNK         0.0000 
  16359 H(8)       65.9788  126.7731    8.9420 H         1 UNK         0.0000 
  16360 H(9)       67.6560  127.1927    8.6612 H         1 UNK         0.0000 
  16361 O(1)       56.7889  130.9689   15.5017 O.3       1 UNK         0.0000 
  16362 O(2)       58.7867  132.2090    9.4577 O.2       1 UNK         0.0000 
  16363 N(1)       56.6055  132.2596   10.0886 N.am      1 UNK         0.0000 
  16364 C(1)       56.7050  131.9007   11.4515 C.ar      1 UNK         0.0000 
  16365 C(2)       57.7871  131.2148   12.0027 C.ar      1 UNK         0.0000 
  16366 C(3)       57.7942  130.9060   13.3599 C.ar      1 UNK         0.0000 
  16367 C(4)       56.7241  131.2687   14.1738 C.ar      1 UNK         0.0000 
  16368 C(5)       55.6285  131.9271   13.6167 C.ar      1 UNK         0.0000 
  16369 C(6)       55.6232  132.2399   12.2649 C.ar      1 UNK         0.0000 
  16370 C(7)       57.5963  132.4124    9.1951 C.2       1 UNK         0.0000 
  16371 C(8)       57.1554  132.8451    7.8224 C.3       1 UNK         0.0000 
  16372 H(1)       58.6277  130.9291   11.3824 H         1 UNK         0.0000 
  16373 H(2)       58.6450  130.3761   13.7701 H         1 UNK         0.0000 
  16374 H(3)       54.7854  132.1972   14.2404 H         1 UNK         0.0000 
  16375 H(4)       54.7726  132.7530   11.8334 H         1 UNK         0.0000 
  16376 H(5)       55.9154  131.0294   15.9075 H         1 UNK         0.0000 
  16377 H(6)       55.6796  132.5043    9.7711 H         1 UNK         0.0000 
  16378 H(7)       57.2337  132.0206    7.1624 H         1 UNK         0.0000 
  16379 H(8)       56.1587  133.2022    7.8021 H         1 UNK         0.0000 
  16380 H(9)       57.8359  133.5682    7.4544 H         1 UNK         0.0000 
  16381 O(1)       57.9216  127.6080   12.3169 O.3       1 UNK         0.0000 
  16382 O(2)       55.9238  121.4393   12.2011 O.2       1 UNK         0.0000 
  16383 N(1)       58.1049  122.0437   12.3888 N.am      1 UNK         0.0000 
  16384 C(1)       58.0055  123.4521   12.3376 C.ar      1 UNK         0.0000 
  16385 C(2)       56.9233  124.1403   11.7893 C.ar      1 UNK         0.0000 
  16386 C(3)       56.9163  125.5321   11.7858 C.ar      1 UNK         0.0000 
  16387 C(4)       57.9863  126.2467   12.3181 C.ar      1 UNK         0.0000 
  16388 C(5)       59.0819  125.5588   12.8383 C.ar      1 UNK         0.0000 
  16389 C(6)       59.0872  124.1713   12.8470 C.ar      1 UNK         0.0000 
  16390 C(7)       57.1141  121.1383   12.3420 C.2       1 UNK         0.0000 
  16391 C(8)       57.5550  119.7042   12.4630 C.3       1 UNK         0.0000 
  16392 H(1)       56.0828  123.5978   11.3746 H         1 UNK         0.0000 
  16393 H(2)       56.0655  126.0486   11.3587 H         1 UNK         0.0000 
  16394 H(3)       59.9251  126.1081   13.2386 H         1 UNK         0.0000 
  16395 H(4)       59.9378  123.6378   13.2530 H         1 UNK         0.0000 
  16396 H(5)       58.7950  127.9906   12.4649 H         1 UNK         0.0000 
  16397 H(6)       59.0309  121.6802   12.5580 H         1 UNK         0.0000 
  16398 H(7)       57.4767  119.2411   11.5138 H         1 UNK         0.0000 
  16399 H(8)       58.5518  119.6061   12.8070 H         1 UNK         0.0000 
  16400 H(9)       56.8745  119.1866   13.0878 H         1 UNK         0.0000 
  16401 O(1)       62.2555  135.8236   13.4097 O.3       1 UNK         0.0000 
  16402 O(2)       60.2577  134.5836   19.4537 O.2       1 UNK         0.0000 
  16403 N(1)       62.4388  134.5329   18.8228 N.am      1 UNK         0.0000 
  16404 C(1)       62.3393  134.8918   17.4599 C.ar      1 UNK         0.0000 
  16405 C(2)       61.2572  135.5777   16.9087 C.ar      1 UNK         0.0000 
  16406 C(3)       61.2502  135.8865   15.5516 C.ar      1 UNK         0.0000 
  16407 C(4)       62.3202  135.5238   14.7376 C.ar      1 UNK         0.0000 
  16408 C(5)       63.4158  134.8654   15.2947 C.ar      1 UNK         0.0000 
  16409 C(6)       63.4211  134.5526   16.6465 C.ar      1 UNK         0.0000 
  16410 C(7)       61.4480  134.3801   19.7163 C.2       1 UNK         0.0000 
  16411 C(8)       61.8889  133.9475   21.0890 C.3       1 UNK         0.0000 
  16412 H(1)       60.4167  135.8634   17.5290 H         1 UNK         0.0000 
  16413 H(2)       60.3993  136.4164   15.1413 H         1 UNK         0.0000 
  16414 H(3)       64.2590  134.5954   14.6710 H         1 UNK         0.0000 
  16415 H(4)       64.2717  134.0395   17.0780 H         1 UNK         0.0000 
  16416 H(5)       63.1289  135.7631   13.0039 H         1 UNK         0.0000 
  16417 H(6)       63.3648  134.2882   19.1403 H         1 UNK         0.0000 
  16418 H(7)       61.8106  134.7719   21.7490 H         1 UNK         0.0000 
  16419 H(8)       62.8857  133.5903   21.1093 H         1 UNK         0.0000 
  16420 H(9)       61.2084  133.2244   21.4570 H         1 UNK         0.0000 
  16421 O(1)       66.6090  124.5021   16.5945 O.3       1 UNK         0.0000 
  16422 O(2)       68.6068  130.6709   16.7103 O.2       1 UNK         0.0000 
  16423 N(1)       66.4256  130.0665   16.5226 N.am      1 UNK         0.0000 
  16424 C(1)       66.5251  128.6581   16.5738 C.ar      1 UNK         0.0000 
  16425 C(2)       67.6072  127.9699   17.1221 C.ar      1 UNK         0.0000 
  16426 C(3)       67.6143  126.5781   17.1257 C.ar      1 UNK         0.0000 
  16427 C(4)       66.5442  125.8635   16.5933 C.ar      1 UNK         0.0000 
  16428 C(5)       65.4486  126.5514   16.0731 C.ar      1 UNK         0.0000 
  16429 C(6)       65.4433  127.9389   16.0644 C.ar      1 UNK         0.0000 
  16430 C(7)       67.4164  130.9718   16.5694 C.2       1 UNK         0.0000 
  16431 C(8)       66.9756  132.4060   16.4484 C.3       1 UNK         0.0000 
  16432 H(1)       68.4478  128.5124   17.5368 H         1 UNK         0.0000 
  16433 H(2)       68.4651  126.0616   17.5527 H         1 UNK         0.0000 
  16434 H(3)       64.6055  126.0021   15.6728 H         1 UNK         0.0000 
  16435 H(4)       64.5927  128.4724   15.6585 H         1 UNK         0.0000 
  16436 H(5)       65.7355  124.1195   16.4465 H         1 UNK         0.0000 
  16437 H(6)       65.4997  130.4300   16.3534 H         1 UNK         0.0000 
  16438 H(7)       67.0538  132.8691   17.3976 H         1 UNK         0.0000 
  16439 H(8)       65.9788  132.5041   16.1044 H         1 UNK         0.0000 
  16440 H(9)       67.6560  132.9236   15.8236 H         1 UNK         0.0000 
  16441 O(1)       62.2751  122.0175   22.6641 O.3       1 UNK         0.0000 
  16442 O(2)       64.2729  123.2576   16.6201 O.2       1 UNK         0.0000 
  16443 N(1)       62.0917  123.3082   17.2510 N.am      1 UNK         0.0000 
  16444 C(1)       62.1912  122.9493   18.6139 C.ar      1 UNK         0.0000 
  16445 C(2)       63.2733  122.2634   19.1651 C.ar      1 UNK         0.0000 
  16446 C(3)       63.2804  121.9547   20.5223 C.ar      1 UNK         0.0000 
  16447 C(4)       62.2104  122.3173   21.3362 C.ar      1 UNK         0.0000 
  16448 C(5)       61.1147  122.9757   20.7791 C.ar      1 UNK         0.0000 
  16449 C(6)       61.1094  123.2886   19.4273 C.ar      1 UNK         0.0000 
  16450 C(7)       63.0825  123.4611   16.3575 C.2       1 UNK         0.0000 
  16451 C(8)       62.6417  123.8937   14.9848 C.3       1 UNK         0.0000 
  16452 H(1)       64.1139  121.9778   18.5448 H         1 UNK         0.0000 
  16453 H(2)       64.1312  121.4248   20.9325 H         1 UNK         0.0000 
  16454 H(3)       60.2716  123.2458   21.4028 H         1 UNK         0.0000 
  16455 H(4)       60.2588  123.8016   18.9958 H         1 UNK         0.0000 
  16456 H(5)       61.4016  122.0780   23.0699 H         1 UNK         0.0000 
  16457 H(6)       61.1658  123.5530   16.9335 H         1 UNK         0.0000 
  16458 H(7)       62.7199  123.0692   14.3248 H         1 UNK         0.0000 
  16459 H(8)       61.6449  124.2508   14.9645 H         1 UNK         0.0000 
  16460 H(9)       63.3221  124.6168   14.6168 H         1 UNK         0.0000 
  16461 O(1)       64.9986  133.3390   19.4793 O.3       1 UNK         0.0000 
  16462 O(2)       63.0008  127.1702   19.3635 O.2       1 UNK         0.0000 
  16463 N(1)       65.1819  127.7746   19.5512 N.am      1 UNK         0.0000 
  16464 C(1)       65.0825  129.1831   19.5000 C.ar      1 UNK         0.0000 
  16465 C(2)       64.0003  129.8713   18.9517 C.ar      1 UNK         0.0000 
  16466 C(3)       63.9933  131.2631   18.9482 C.ar      1 UNK         0.0000 
  16467 C(4)       65.0633  131.9777   19.4805 C.ar      1 UNK         0.0000 
  16468 C(5)       66.1589  131.2898   20.0007 C.ar      1 UNK         0.0000 
  16469 C(6)       66.1642  129.9022   20.0094 C.ar      1 UNK         0.0000 
  16470 C(7)       64.1911  126.8693   19.5044 C.2       1 UNK         0.0000 
  16471 C(8)       64.6320  125.4352   19.6254 C.3       1 UNK         0.0000 
  16472 H(1)       63.1598  129.3287   18.5370 H         1 UNK         0.0000 
  16473 H(2)       63.1425  131.7796   18.5211 H         1 UNK         0.0000 
  16474 H(3)       67.0021  131.8390   20.4010 H         1 UNK         0.0000 
  16475 H(4)       67.0148  129.3687   20.4154 H         1 UNK         0.0000 
  16476 H(5)       65.8720  133.7216   19.6273 H         1 UNK         0.0000 
  16477 H(6)       66.1079  127.4112   19.7204 H         1 UNK         0.0000 
  16478 H(7)       64.5537  124.9721   18.6762 H         1 UNK         0.0000 
  16479 H(8)       65.6288  125.3370   19.9694 H         1 UNK         0.0000 
  16480 H(9)       63.9515  124.9175   20.2502 H         1 UNK         0.0000 
  16481 O(1)       60.6647  126.8723   20.5721 O.3       1 UNK         0.0000 
  16482 O(2)       58.6669  125.6322   26.6161 O.2       1 UNK         0.0000 
  16483 N(1)       60.8480  125.5816   25.9852 N.am      1 UNK         0.0000 
  16484 C(1)       60.7486  125.9405   24.6223 C.ar      1 UNK         0.0000 
  16485 C(2)       59.6664  126.6264   24.0711 C.ar      1 UNK         0.0000 
  16486 C(3)       59.6594  126.9351   22.7140 C.ar      1 UNK         0.0000 
  16487 C(4)       60.7294  126.5725   21.9000 C.ar      1 UNK         0.0000 
  16488 C(5)       61.8250  125.9141   22.4571 C.ar      1 UNK         0.0000 
  16489 C(6)       61.8303  125.6012   23.8089 C.ar      1 UNK         0.0000 
  16490 C(7)       59.8572  125.4287   26.8787 C.2       1 UNK         0.0000 
  16491 C(8)       60.2981  124.9961   28.2514 C.3       1 UNK         0.0000 
  16492 H(1)       58.8259  126.9120   24.6914 H         1 UNK         0.0000 
  16493 H(2)       58.8086  127.4650   22.3037 H         1 UNK         0.0000 
  16494 H(3)       62.6682  125.6440   21.8334 H         1 UNK         0.0000 
  16495 H(4)       62.6809  125.0881   24.2404 H         1 UNK         0.0000 
  16496 H(5)       61.5381  126.8118   20.1663 H         1 UNK         0.0000 
  16497 H(6)       61.7740  125.3368   26.3027 H         1 UNK         0.0000 
  16498 H(7)       60.2198  125.8206   28.9114 H         1 UNK         0.0000 
  16499 H(8)       61.2949  124.6390   28.2717 H         1 UNK         0.0000 
  16500 H(9)       59.6176  124.2730   28.6194 H         1 UNK         0.0000 
  16501 O(1)       59.5320  130.2331   23.7569 O.3       1 UNK         0.0000 
  16502 O(2)       61.5298  136.4019   23.8727 O.2       1 UNK         0.0000 
  16503 N(1)       59.3486  135.7975   23.6850 N.am      1 UNK         0.0000 
  16504 C(1)       59.4481  134.3890   23.7362 C.ar      1 UNK         0.0000 
  16505 C(2)       60.5302  133.7008   24.2845 C.ar      1 UNK         0.0000 
  16506 C(3)       60.5373  132.3090   24.2881 C.ar      1 UNK         0.0000 
  16507 C(4)       59.4672  131.5944   23.7557 C.ar      1 UNK         0.0000 
  16508 C(5)       58.3716  132.2823   23.2355 C.ar      1 UNK         0.0000 
  16509 C(6)       58.3663  133.6699   23.2268 C.ar      1 UNK         0.0000 
  16510 C(7)       60.3394  136.7028   23.7318 C.2       1 UNK         0.0000 
  16511 C(8)       59.8986  138.1369   23.6108 C.3       1 UNK         0.0000 
  16512 H(1)       61.3708  134.2434   24.6992 H         1 UNK         0.0000 
  16513 H(2)       61.3881  131.7926   24.7151 H         1 UNK         0.0000 
  16514 H(3)       57.5285  131.7331   22.8352 H         1 UNK         0.0000 
  16515 H(4)       57.5157  134.2034   22.8209 H         1 UNK         0.0000 
  16516 H(5)       58.6585  129.8505   23.6089 H         1 UNK         0.0000 
  16517 H(6)       58.4227  136.1610   23.5158 H         1 UNK         0.0000 
  16518 H(7)       59.9768  138.6000   24.5600 H         1 UNK         0.0000 
  16519 H(8)       58.9018  138.2351   23.2668 H         1 UNK         0.0000 
  16520 H(9)       60.5790  138.6546   22.9860 H         1 UNK         0.0000 
  16521 O(1)       63.8659  125.2379    8.3393 O.3       1 UNK         0.0000 
  16522 O(2)       65.8637  126.4780    2.2953 O.2       1 UNK         0.0000 
  16523 N(1)       63.6825  126.5286    2.9262 N.am      1 UNK         0.0000 
  16524 C(1)       63.7820  126.1697    4.2891 C.ar      1 UNK         0.0000 
  16525 C(2)       64.8641  125.4838    4.8403 C.ar      1 UNK         0.0000 
  16526 C(3)       64.8712  125.1751    6.1975 C.ar      1 UNK         0.0000 
  16527 C(4)       63.8011  125.5377    7.0114 C.ar      1 UNK         0.0000 
  16528 C(5)       62.7055  126.1961    6.4543 C.ar      1 UNK         0.0000 
  16529 C(6)       62.7002  126.5090    5.1025 C.ar      1 UNK         0.0000 
  16530 C(7)       64.6733  126.6815    2.0327 C.2       1 UNK         0.0000 
  16531 C(8)       64.2324  127.1141    0.6600 C.3       1 UNK         0.0000 
  16532 H(1)       65.7047  125.1982    4.2200 H         1 UNK         0.0000 
  16533 H(2)       65.7220  124.6452    6.6077 H         1 UNK         0.0000 
  16534 H(3)       61.8624  126.4662    7.0780 H         1 UNK         0.0000 
  16535 H(4)       61.8496  127.0220    4.6710 H         1 UNK         0.0000 
  16536 H(5)       62.9924  125.2984    8.7451 H         1 UNK         0.0000 
  16537 H(6)       62.7566  126.7734    2.6087 H         1 UNK         0.0000 
  16538 H(7)       64.3107  126.2896    0.0000 H         1 UNK         0.0000 
  16539 H(8)       63.2357  127.4712    0.6397 H         1 UNK         0.0000 
  16540 H(9)       64.9129  127.8372    0.2920 H         1 UNK         0.0000 
  16541 O(1)       66.5894  136.5594    5.1545 O.3       1 UNK         0.0000 
  16542 O(2)       64.5915  130.3906    5.0387 O.2       1 UNK         0.0000 
  16543 N(1)       66.7727  130.9950    5.2264 N.am      1 UNK         0.0000 
  16544 C(1)       66.6732  132.4035    5.1752 C.ar      1 UNK         0.0000 
  16545 C(2)       65.5911  133.0917    4.6269 C.ar      1 UNK         0.0000 
  16546 C(3)       65.5840  134.4835    4.6234 C.ar      1 UNK         0.0000 
  16547 C(4)       66.6541  135.1981    5.1557 C.ar      1 UNK         0.0000 
  16548 C(5)       67.7497  134.5102    5.6759 C.ar      1 UNK         0.0000 
  16549 C(6)       67.7550  133.1226    5.6846 C.ar      1 UNK         0.0000 
  16550 C(7)       65.7819  130.0897    5.1796 C.2       1 UNK         0.0000 
  16551 C(8)       66.2228  128.6556    5.3006 C.3       1 UNK         0.0000 
  16552 H(1)       64.7505  132.5491    4.2122 H         1 UNK         0.0000 
  16553 H(2)       64.7332  135.0000    4.1963 H         1 UNK         0.0000 
  16554 H(3)       68.5928  135.0594    6.0762 H         1 UNK         0.0000 
  16555 H(4)       68.6056  132.5891    6.0906 H         1 UNK         0.0000 
  16556 H(5)       67.4628  136.9420    5.3025 H         1 UNK         0.0000 
  16557 H(6)       67.6987  130.6316    5.3956 H         1 UNK         0.0000 
  16558 H(7)       66.1445  128.1925    4.3514 H         1 UNK         0.0000 
  16559 H(8)       67.2195  128.5574    5.6446 H         1 UNK         0.0000 
  16560 H(9)       65.5423  128.1379    5.9254 H         1 UNK         0.0000 
  16561 O(1)       63.8463  144.7750    6.2473 O.3       1 UNK         0.0000 
  16562 O(2)       61.8484  143.5349   12.2913 O.2       1 UNK         0.0000 
  16563 N(1)       64.0296  143.4843   11.6604 N.am      1 UNK         0.0000 
  16564 C(1)       63.9301  143.8432   10.2975 C.ar      1 UNK         0.0000 
  16565 C(2)       62.8480  144.5291    9.7463 C.ar      1 UNK         0.0000 
  16566 C(3)       62.8409  144.8378    8.3892 C.ar      1 UNK         0.0000 
  16567 C(4)       63.9110  144.4752    7.5752 C.ar      1 UNK         0.0000 
  16568 C(5)       65.0066  143.8168    8.1323 C.ar      1 UNK         0.0000 
  16569 C(6)       65.0119  143.5039    9.4841 C.ar      1 UNK         0.0000 
  16570 C(7)       63.0388  143.3315   12.5539 C.2       1 UNK         0.0000 
  16571 C(8)       63.4797  142.8988   13.9266 C.3       1 UNK         0.0000 
  16572 H(1)       62.0074  144.8147   10.3666 H         1 UNK         0.0000 
  16573 H(2)       61.9901  145.3678    7.9789 H         1 UNK         0.0000 
  16574 H(3)       65.8497  143.5467    7.5086 H         1 UNK         0.0000 
  16575 H(4)       65.8625  142.9909    9.9156 H         1 UNK         0.0000 
  16576 H(5)       64.7197  144.7145    5.8415 H         1 UNK         0.0000 
  16577 H(6)       64.9555  143.2395   11.9779 H         1 UNK         0.0000 
  16578 H(7)       63.4014  143.7233   14.5866 H         1 UNK         0.0000 
  16579 H(8)       64.4764  142.5417   13.9469 H         1 UNK         0.0000 
  16580 H(9)       62.7992  142.1757   14.2946 H         1 UNK         0.0000 
  16581 O(1)       68.1997  133.4535    9.4321 O.3       1 UNK         0.0000 
  16582 O(2)       70.1976  139.6223    9.5479 O.2       1 UNK         0.0000 
  16583 N(1)       68.0164  139.0179    9.3602 N.am      1 UNK         0.0000 
  16584 C(1)       68.1159  137.6094    9.4114 C.ar      1 UNK         0.0000 
  16585 C(2)       69.1980  136.9212    9.9597 C.ar      1 UNK         0.0000 
  16586 C(3)       69.2051  135.5294    9.9633 C.ar      1 UNK         0.0000 
  16587 C(4)       68.1350  134.8148    9.4309 C.ar      1 UNK         0.0000 
  16588 C(5)       67.0394  135.5027    8.9107 C.ar      1 UNK         0.0000 
  16589 C(6)       67.0341  136.8903    8.9020 C.ar      1 UNK         0.0000 
  16590 C(7)       69.0072  139.9232    9.4070 C.2       1 UNK         0.0000 
  16591 C(8)       68.5663  141.3573    9.2860 C.3       1 UNK         0.0000 
  16592 H(1)       70.0386  137.4638   10.3744 H         1 UNK         0.0000 
  16593 H(2)       70.0559  135.0130   10.3903 H         1 UNK         0.0000 
  16594 H(3)       66.1963  134.9535    8.5104 H         1 UNK         0.0000 
  16595 H(4)       66.1835  137.4238    8.4961 H         1 UNK         0.0000 
  16596 H(5)       67.3263  133.0709    9.2841 H         1 UNK         0.0000 
  16597 H(6)       67.0905  139.3814    9.1910 H         1 UNK         0.0000 
  16598 H(7)       68.6446  141.8204   10.2352 H         1 UNK         0.0000 
  16599 H(8)       67.5696  141.4555    8.9420 H         1 UNK         0.0000 
  16600 H(9)       69.2468  141.8750    8.6612 H         1 UNK         0.0000 
  16601 O(1)       58.3796  145.6512   15.5017 O.3       1 UNK         0.0000 
  16602 O(2)       60.3775  146.8913    9.4577 O.2       1 UNK         0.0000 
  16603 N(1)       58.1963  146.9419   10.0886 N.am      1 UNK         0.0000 
  16604 C(1)       58.2958  146.5830   11.4515 C.ar      1 UNK         0.0000 
  16605 C(2)       59.3779  145.8971   12.0027 C.ar      1 UNK         0.0000 
  16606 C(3)       59.3850  145.5884   13.3599 C.ar      1 UNK         0.0000 
  16607 C(4)       58.3149  145.9510   14.1738 C.ar      1 UNK         0.0000 
  16608 C(5)       57.2193  146.6094   13.6167 C.ar      1 UNK         0.0000 
  16609 C(6)       57.2140  146.9223   12.2649 C.ar      1 UNK         0.0000 
  16610 C(7)       59.1871  147.0948    9.1951 C.2       1 UNK         0.0000 
  16611 C(8)       58.7462  147.5274    7.8224 C.3       1 UNK         0.0000 
  16612 H(1)       60.2185  145.6115   11.3824 H         1 UNK         0.0000 
  16613 H(2)       60.2358  145.0585   13.7701 H         1 UNK         0.0000 
  16614 H(3)       56.3761  146.8795   14.2404 H         1 UNK         0.0000 
  16615 H(4)       56.3634  147.4353   11.8334 H         1 UNK         0.0000 
  16616 H(5)       57.5062  145.7117   15.9075 H         1 UNK         0.0000 
  16617 H(6)       57.2703  147.1867    9.7711 H         1 UNK         0.0000 
  16618 H(7)       58.8245  146.7029    7.1624 H         1 UNK         0.0000 
  16619 H(8)       57.7494  147.8845    7.8021 H         1 UNK         0.0000 
  16620 H(9)       59.4267  148.2505    7.4544 H         1 UNK         0.0000 
  16621 O(1)       59.5124  142.2904   12.3169 O.3       1 UNK         0.0000 
  16622 O(2)       57.5145  136.1216   12.2011 O.2       1 UNK         0.0000 
  16623 N(1)       59.6957  136.7260   12.3888 N.am      1 UNK         0.0000 
  16624 C(1)       59.5962  138.1344   12.3376 C.ar      1 UNK         0.0000 
  16625 C(2)       58.5141  138.8226   11.7893 C.ar      1 UNK         0.0000 
  16626 C(3)       58.5070  140.2145   11.7858 C.ar      1 UNK         0.0000 
  16627 C(4)       59.5771  140.9291   12.3181 C.ar      1 UNK         0.0000 
  16628 C(5)       60.6727  140.2411   12.8383 C.ar      1 UNK         0.0000 
  16629 C(6)       60.6780  138.8536   12.8470 C.ar      1 UNK         0.0000 
  16630 C(7)       58.7049  135.8207   12.3420 C.2       1 UNK         0.0000 
  16631 C(8)       59.1458  134.3866   12.4630 C.3       1 UNK         0.0000 
  16632 H(1)       57.6735  138.2801   11.3746 H         1 UNK         0.0000 
  16633 H(2)       57.6562  140.7309   11.3587 H         1 UNK         0.0000 
  16634 H(3)       61.5158  140.7904   13.2386 H         1 UNK         0.0000 
  16635 H(4)       61.5286  138.3201   13.2530 H         1 UNK         0.0000 
  16636 H(5)       60.3858  142.6730   12.4649 H         1 UNK         0.0000 
  16637 H(6)       60.6217  136.3625   12.5580 H         1 UNK         0.0000 
  16638 H(7)       59.0675  133.9235   11.5138 H         1 UNK         0.0000 
  16639 H(8)       60.1425  134.2884   12.8070 H         1 UNK         0.0000 
  16640 H(9)       58.4653  133.8689   13.0878 H         1 UNK         0.0000 
  16641 O(1)       63.8463  150.5060   13.4097 O.3       1 UNK         0.0000 
  16642 O(2)       61.8484  149.2659   19.4537 O.2       1 UNK         0.0000 
  16643 N(1)       64.0296  149.2153   18.8228 N.am      1 UNK         0.0000 
  16644 C(1)       63.9301  149.5742   17.4599 C.ar      1 UNK         0.0000 
  16645 C(2)       62.8480  150.2601   16.9087 C.ar      1 UNK         0.0000 
  16646 C(3)       62.8409  150.5688   15.5516 C.ar      1 UNK         0.0000 
  16647 C(4)       63.9110  150.2062   14.7376 C.ar      1 UNK         0.0000 
  16648 C(5)       65.0066  149.5478   15.2947 C.ar      1 UNK         0.0000 
  16649 C(6)       65.0119  149.2349   16.6465 C.ar      1 UNK         0.0000 
  16650 C(7)       63.0388  149.0624   19.7163 C.2       1 UNK         0.0000 
  16651 C(8)       63.4797  148.6298   21.0890 C.3       1 UNK         0.0000 
  16652 H(1)       62.0074  150.5457   17.5290 H         1 UNK         0.0000 
  16653 H(2)       61.9901  151.0987   15.1413 H         1 UNK         0.0000 
  16654 H(3)       65.8497  149.2777   14.6710 H         1 UNK         0.0000 
  16655 H(4)       65.8625  148.7218   17.0780 H         1 UNK         0.0000 
  16656 H(5)       64.7197  150.4455   13.0039 H         1 UNK         0.0000 
  16657 H(6)       64.9555  148.9705   19.1403 H         1 UNK         0.0000 
  16658 H(7)       63.4014  149.4542   21.7490 H         1 UNK         0.0000 
  16659 H(8)       64.4764  148.2727   21.1093 H         1 UNK         0.0000 
  16660 H(9)       62.7992  147.9067   21.4570 H         1 UNK         0.0000 
  16661 O(1)       68.1997  139.1845   16.5945 O.3       1 UNK         0.0000 
  16662 O(2)       70.1976  145.3533   16.7103 O.2       1 UNK         0.0000 
  16663 N(1)       68.0164  144.7489   16.5226 N.am      1 UNK         0.0000 
  16664 C(1)       68.1159  143.3404   16.5738 C.ar      1 UNK         0.0000 
  16665 C(2)       69.1980  142.6522   17.1221 C.ar      1 UNK         0.0000 
  16666 C(3)       69.2051  141.2604   17.1257 C.ar      1 UNK         0.0000 
  16667 C(4)       68.1350  140.5458   16.5933 C.ar      1 UNK         0.0000 
  16668 C(5)       67.0394  141.2337   16.0731 C.ar      1 UNK         0.0000 
  16669 C(6)       67.0341  142.6212   16.0644 C.ar      1 UNK         0.0000 
  16670 C(7)       69.0072  145.6542   16.5694 C.2       1 UNK         0.0000 
  16671 C(8)       68.5663  147.0883   16.4484 C.3       1 UNK         0.0000 
  16672 H(1)       70.0386  143.1947   17.5368 H         1 UNK         0.0000 
  16673 H(2)       70.0559  140.7439   17.5527 H         1 UNK         0.0000 
  16674 H(3)       66.1963  140.6845   15.6728 H         1 UNK         0.0000 
  16675 H(4)       66.1835  143.1548   15.6585 H         1 UNK         0.0000 
  16676 H(5)       67.3263  138.8019   16.4465 H         1 UNK         0.0000 
  16677 H(6)       67.0905  145.1123   16.3534 H         1 UNK         0.0000 
  16678 H(7)       68.6446  147.5514   17.3976 H         1 UNK         0.0000 
  16679 H(8)       67.5696  147.1864   16.1044 H         1 UNK         0.0000 
  16680 H(9)       69.2468  147.6060   15.8236 H         1 UNK         0.0000 
  16681 O(1)       63.8659  136.6998   22.6641 O.3       1 UNK         0.0000 
  16682 O(2)       65.8637  137.9399   16.6201 O.2       1 UNK         0.0000 
  16683 N(1)       63.6825  137.9906   17.2510 N.am      1 UNK         0.0000 
  16684 C(1)       63.7820  137.6316   18.6139 C.ar      1 UNK         0.0000 
  16685 C(2)       64.8641  136.9458   19.1651 C.ar      1 UNK         0.0000 
  16686 C(3)       64.8712  136.6370   20.5223 C.ar      1 UNK         0.0000 
  16687 C(4)       63.8011  136.9997   21.3362 C.ar      1 UNK         0.0000 
  16688 C(5)       62.7055  137.6580   20.7791 C.ar      1 UNK         0.0000 
  16689 C(6)       62.7002  137.9709   19.4273 C.ar      1 UNK         0.0000 
  16690 C(7)       64.6733  138.1434   16.3575 C.2       1 UNK         0.0000 
  16691 C(8)       64.2324  138.5760   14.9848 C.3       1 UNK         0.0000 
  16692 H(1)       65.7047  136.6601   18.5448 H         1 UNK         0.0000 
  16693 H(2)       65.7220  136.1071   20.9325 H         1 UNK         0.0000 
  16694 H(3)       61.8624  137.9281   21.4028 H         1 UNK         0.0000 
  16695 H(4)       61.8496  138.4840   18.9958 H         1 UNK         0.0000 
  16696 H(5)       62.9924  136.7604   23.0699 H         1 UNK         0.0000 
  16697 H(6)       62.7566  138.2353   16.9335 H         1 UNK         0.0000 
  16698 H(7)       64.3107  137.7516   14.3248 H         1 UNK         0.0000 
  16699 H(8)       63.2357  138.9332   14.9645 H         1 UNK         0.0000 
  16700 H(9)       64.9129  139.2991   14.6168 H         1 UNK         0.0000 
  16701 O(1)       66.5894  148.0213   19.4793 O.3       1 UNK         0.0000 
  16702 O(2)       64.5915  141.8526   19.3635 O.2       1 UNK         0.0000 
  16703 N(1)       66.7727  142.4570   19.5512 N.am      1 UNK         0.0000 
  16704 C(1)       66.6732  143.8654   19.5000 C.ar      1 UNK         0.0000 
  16705 C(2)       65.5911  144.5536   18.9517 C.ar      1 UNK         0.0000 
  16706 C(3)       65.5840  145.9454   18.9482 C.ar      1 UNK         0.0000 
  16707 C(4)       66.6541  146.6600   19.4805 C.ar      1 UNK         0.0000 
  16708 C(5)       67.7497  145.9721   20.0007 C.ar      1 UNK         0.0000 
  16709 C(6)       67.7550  144.5846   20.0094 C.ar      1 UNK         0.0000 
  16710 C(7)       65.7819  141.5516   19.5044 C.2       1 UNK         0.0000 
  16711 C(8)       66.2228  140.1175   19.6254 C.3       1 UNK         0.0000 
  16712 H(1)       64.7505  144.0111   18.5370 H         1 UNK         0.0000 
  16713 H(2)       64.7332  146.4619   18.5211 H         1 UNK         0.0000 
  16714 H(3)       68.5928  146.5214   20.4010 H         1 UNK         0.0000 
  16715 H(4)       68.6056  144.0510   20.4154 H         1 UNK         0.0000 
  16716 H(5)       67.4628  148.4039   19.6273 H         1 UNK         0.0000 
  16717 H(6)       67.6987  142.0935   19.7204 H         1 UNK         0.0000 
  16718 H(7)       66.1445  139.6544   18.6762 H         1 UNK         0.0000 
  16719 H(8)       67.2195  140.0194   19.9694 H         1 UNK         0.0000 
  16720 H(9)       65.5423  139.5998   20.2502 H         1 UNK         0.0000 
  16721 O(1)       62.2555  141.5546   20.5721 O.3       1 UNK         0.0000 
  16722 O(2)       60.2577  140.3145   26.6161 O.2       1 UNK         0.0000 
  16723 N(1)       62.4388  140.2639   25.9852 N.am      1 UNK         0.0000 
  16724 C(1)       62.3393  140.6228   24.6223 C.ar      1 UNK         0.0000 
  16725 C(2)       61.2572  141.3087   24.0711 C.ar      1 UNK         0.0000 
  16726 C(3)       61.2502  141.6174   22.7140 C.ar      1 UNK         0.0000 
  16727 C(4)       62.3202  141.2548   21.9000 C.ar      1 UNK         0.0000 
  16728 C(5)       63.4158  140.5964   22.4571 C.ar      1 UNK         0.0000 
  16729 C(6)       63.4211  140.2835   23.8089 C.ar      1 UNK         0.0000 
  16730 C(7)       61.4480  140.1111   26.8787 C.2       1 UNK         0.0000 
  16731 C(8)       61.8889  139.6784   28.2514 C.3       1 UNK         0.0000 
  16732 H(1)       60.4167  141.5943   24.6914 H         1 UNK         0.0000 
  16733 H(2)       60.3993  142.1474   22.3037 H         1 UNK         0.0000 
  16734 H(3)       64.2590  140.3263   21.8334 H         1 UNK         0.0000 
  16735 H(4)       64.2717  139.7705   24.2404 H         1 UNK         0.0000 
  16736 H(5)       63.1289  141.4941   20.1663 H         1 UNK         0.0000 
  16737 H(6)       63.3648  140.0191   26.3027 H         1 UNK         0.0000 
  16738 H(7)       61.8106  140.5029   28.9114 H         1 UNK         0.0000 
  16739 H(8)       62.8857  139.3213   28.2717 H         1 UNK         0.0000 
  16740 H(9)       61.2084  138.9553   28.6194 H         1 UNK         0.0000 
  16741 O(1)       61.1227  144.9154   23.7569 O.3       1 UNK         0.0000 
  16742 O(2)       63.1206  151.0842   23.8727 O.2       1 UNK         0.0000 
  16743 N(1)       60.9394  150.4798   23.6850 N.am      1 UNK         0.0000 
  16744 C(1)       61.0389  149.0714   23.7362 C.ar      1 UNK         0.0000 
  16745 C(2)       62.1210  148.3832   24.2845 C.ar      1 UNK         0.0000 
  16746 C(3)       62.1281  146.9914   24.2881 C.ar      1 UNK         0.0000 
  16747 C(4)       61.0580  146.2767   23.7557 C.ar      1 UNK         0.0000 
  16748 C(5)       59.9624  146.9647   23.2355 C.ar      1 UNK         0.0000 
  16749 C(6)       59.9571  148.3522   23.2268 C.ar      1 UNK         0.0000 
  16750 C(7)       61.9302  151.3851   23.7318 C.2       1 UNK         0.0000 
  16751 C(8)       61.4893  152.8193   23.6108 C.3       1 UNK         0.0000 
  16752 H(1)       62.9616  148.9257   24.6992 H         1 UNK         0.0000 
  16753 H(2)       62.9789  146.4749   24.7151 H         1 UNK         0.0000 
  16754 H(3)       59.1193  146.4154   22.8352 H         1 UNK         0.0000 
  16755 H(4)       59.1065  148.8857   22.8209 H         1 UNK         0.0000 
  16756 H(5)       60.2493  144.5328   23.6089 H         1 UNK         0.0000 
  16757 H(6)       60.0134  150.8433   23.5158 H         1 UNK         0.0000 
  16758 H(7)       61.5676  153.2824   24.5600 H         1 UNK         0.0000 
  16759 H(8)       60.4926  152.9174   23.2668 H         1 UNK         0.0000 
  16760 H(9)       62.1698  153.3369   22.9860 H         1 UNK         0.0000 
  16761 O(1)       65.4566  139.9202    8.3393 O.3       1 UNK         0.0000 
  16762 O(2)       67.4545  141.1603    2.2953 O.2       1 UNK         0.0000 
  16763 N(1)       65.2733  141.2110    2.9262 N.am      1 UNK         0.0000 
  16764 C(1)       65.3728  140.8520    4.2891 C.ar      1 UNK         0.0000 
  16765 C(2)       66.4549  140.1662    4.8403 C.ar      1 UNK         0.0000 
  16766 C(3)       66.4620  139.8574    6.1975 C.ar      1 UNK         0.0000 
  16767 C(4)       65.3919  140.2201    7.0114 C.ar      1 UNK         0.0000 
  16768 C(5)       64.2963  140.8784    6.4543 C.ar      1 UNK         0.0000 
  16769 C(6)       64.2910  141.1913    5.1025 C.ar      1 UNK         0.0000 
  16770 C(7)       66.2641  141.3638    2.0327 C.2       1 UNK         0.0000 
  16771 C(8)       65.8232  141.7964    0.6600 C.3       1 UNK         0.0000 
  16772 H(1)       67.2955  139.8805    4.2200 H         1 UNK         0.0000 
  16773 H(2)       67.3128  139.3275    6.6077 H         1 UNK         0.0000 
  16774 H(3)       63.4531  141.1485    7.0780 H         1 UNK         0.0000 
  16775 H(4)       63.4404  141.7044    4.6710 H         1 UNK         0.0000 
  16776 H(5)       64.5832  139.9808    8.7451 H         1 UNK         0.0000 
  16777 H(6)       64.3473  141.4557    2.6087 H         1 UNK         0.0000 
  16778 H(7)       65.9015  140.9720    0.0000 H         1 UNK         0.0000 
  16779 H(8)       64.8264  142.1536    0.6397 H         1 UNK         0.0000 
  16780 H(9)       66.5037  142.5195    0.2920 H         1 UNK         0.0000 
  16781 O(1)       68.1801  151.2417    5.1545 O.3       1 UNK         0.0000 
  16782 O(2)       66.1823  145.0729    5.0387 O.2       1 UNK         0.0000 
  16783 N(1)       68.3635  145.6774    5.2264 N.am      1 UNK         0.0000 
  16784 C(1)       68.2640  147.0858    5.1752 C.ar      1 UNK         0.0000 
  16785 C(2)       67.1819  147.7740    4.6269 C.ar      1 UNK         0.0000 
  16786 C(3)       67.1748  149.1658    4.6234 C.ar      1 UNK         0.0000 
  16787 C(4)       68.2449  149.8804    5.1557 C.ar      1 UNK         0.0000 
  16788 C(5)       69.3405  149.1925    5.6759 C.ar      1 UNK         0.0000 
  16789 C(6)       69.3458  147.8050    5.6846 C.ar      1 UNK         0.0000 
  16790 C(7)       67.3727  144.7720    5.1796 C.2       1 UNK         0.0000 
  16791 C(8)       67.8136  143.3379    5.3006 C.3       1 UNK         0.0000 
  16792 H(1)       66.3413  147.2315    4.2122 H         1 UNK         0.0000 
  16793 H(2)       66.3240  149.6823    4.1963 H         1 UNK         0.0000 
  16794 H(3)       70.1836  149.7418    6.0762 H         1 UNK         0.0000 
  16795 H(4)       70.1964  147.2714    6.0906 H         1 UNK         0.0000 
  16796 H(5)       69.0536  151.6243    5.3025 H         1 UNK         0.0000 
  16797 H(6)       69.2894  145.3139    5.3956 H         1 UNK         0.0000 
  16798 H(7)       67.7353  142.8748    4.3514 H         1 UNK         0.0000 
  16799 H(8)       68.8103  143.2398    5.6446 H         1 UNK         0.0000 
  16800 H(9)       67.1331  142.8202    5.9254 H         1 UNK         0.0000 
  16801 O(1)       56.6062   12.6340    6.2473 O.3       1 UNK         0.0000 
  16802 O(2)       54.6084   11.3940   12.2913 O.2       1 UNK         0.0000 
  16803 N(1)       56.7895   11.3433   11.6604 N.am      1 UNK         0.0000 
  16804 C(1)       56.6901   11.7022   10.2975 C.ar      1 UNK         0.0000 
  16805 C(2)       55.6079   12.3881    9.7463 C.ar      1 UNK         0.0000 
  16806 C(3)       55.6009   12.6969    8.3892 C.ar      1 UNK         0.0000 
  16807 C(4)       56.6709   12.3342    7.5752 C.ar      1 UNK         0.0000 
  16808 C(5)       57.7665   11.6758    8.1323 C.ar      1 UNK         0.0000 
  16809 C(6)       57.7718   11.3630    9.4841 C.ar      1 UNK         0.0000 
  16810 C(7)       55.7988   11.1905   12.5539 C.2       1 UNK         0.0000 
  16811 C(8)       56.2396   10.7579   13.9266 C.3       1 UNK         0.0000 
  16812 H(1)       54.7674   12.6738   10.3666 H         1 UNK         0.0000 
  16813 H(2)       54.7501   13.2268    7.9789 H         1 UNK         0.0000 
  16814 H(3)       58.6097   11.4057    7.5086 H         1 UNK         0.0000 
  16815 H(4)       58.6224   10.8499    9.9156 H         1 UNK         0.0000 
  16816 H(5)       57.4796   12.5735    5.8415 H         1 UNK         0.0000 
  16817 H(6)       57.7155   11.0986   11.9779 H         1 UNK         0.0000 
  16818 H(7)       56.1613   11.5823   14.5866 H         1 UNK         0.0000 
  16819 H(8)       57.2364   10.4007   13.9469 H         1 UNK         0.0000 
  16820 H(9)       55.5591   10.0347   14.2946 H         1 UNK         0.0000 
  16821 O(1)       60.9597    1.3125    9.4321 O.3       1 UNK         0.0000 
  16822 O(2)       62.9575    7.4813    9.5479 O.2       1 UNK         0.0000 
  16823 N(1)       60.7764    6.8769    9.3602 N.am      1 UNK         0.0000 
  16824 C(1)       60.8758    5.4685    9.4114 C.ar      1 UNK         0.0000 
  16825 C(2)       61.9580    4.7803    9.9597 C.ar      1 UNK         0.0000 
  16826 C(3)       61.9650    3.3885    9.9633 C.ar      1 UNK         0.0000 
  16827 C(4)       60.8950    2.6738    9.4309 C.ar      1 UNK         0.0000 
  16828 C(5)       59.7994    3.3618    8.9107 C.ar      1 UNK         0.0000 
  16829 C(6)       59.7941    4.7493    8.9020 C.ar      1 UNK         0.0000 
  16830 C(7)       61.7671    7.7822    9.4070 C.2       1 UNK         0.0000 
  16831 C(8)       61.3263    9.2163    9.2860 C.3       1 UNK         0.0000 
  16832 H(1)       62.7985    5.3228   10.3744 H         1 UNK         0.0000 
  16833 H(2)       62.8158    2.8720   10.3903 H         1 UNK         0.0000 
  16834 H(3)       58.9562    2.8125    8.5104 H         1 UNK         0.0000 
  16835 H(4)       58.9434    5.2828    8.4961 H         1 UNK         0.0000 
  16836 H(5)       60.0863    0.9299    9.2841 H         1 UNK         0.0000 
  16837 H(6)       59.8504    7.2404    9.1910 H         1 UNK         0.0000 
  16838 H(7)       61.4045    9.6795   10.2352 H         1 UNK         0.0000 
  16839 H(8)       60.3295    9.3145    8.9420 H         1 UNK         0.0000 
  16840 H(9)       62.0068    9.7340    8.6612 H         1 UNK         0.0000 
  16841 O(1)       51.1396   13.5102   15.5017 O.3       1 UNK         0.0000 
  16842 O(2)       53.1374   14.7503    9.4577 O.2       1 UNK         0.0000 
  16843 N(1)       50.9563   14.8009   10.0886 N.am      1 UNK         0.0000 
  16844 C(1)       51.0557   14.4420   11.4515 C.ar      1 UNK         0.0000 
  16845 C(2)       52.1379   13.7561   12.0027 C.ar      1 UNK         0.0000 
  16846 C(3)       52.1449   13.4474   13.3599 C.ar      1 UNK         0.0000 
  16847 C(4)       51.0749   13.8100   14.1738 C.ar      1 UNK         0.0000 
  16848 C(5)       49.9793   14.4684   13.6167 C.ar      1 UNK         0.0000 
  16849 C(6)       49.9740   14.7813   12.2649 C.ar      1 UNK         0.0000 
  16850 C(7)       51.9470   14.9538    9.1951 C.2       1 UNK         0.0000 
  16851 C(8)       51.5062   15.3864    7.8224 C.3       1 UNK         0.0000 
  16852 H(1)       52.9784   13.4705   11.3824 H         1 UNK         0.0000 
  16853 H(2)       52.9957   12.9175   13.7701 H         1 UNK         0.0000 
  16854 H(3)       49.1361   14.7385   14.2404 H         1 UNK         0.0000 
  16855 H(4)       49.1233   15.2944   11.8334 H         1 UNK         0.0000 
  16856 H(5)       50.2661   13.5707   15.9075 H         1 UNK         0.0000 
  16857 H(6)       50.0303   15.0457    9.7711 H         1 UNK         0.0000 
  16858 H(7)       51.5844   14.5620    7.1624 H         1 UNK         0.0000 
  16859 H(8)       50.5094   15.7436    7.8021 H         1 UNK         0.0000 
  16860 H(9)       52.1867   16.1095    7.4544 H         1 UNK         0.0000 
  16861 O(1)       52.2723   10.1494   12.3169 O.3       1 UNK         0.0000 
  16862 O(2)       50.2745    3.9806   12.2011 O.2       1 UNK         0.0000 
  16863 N(1)       52.4556    4.5850   12.3888 N.am      1 UNK         0.0000 
  16864 C(1)       52.3562    5.9935   12.3376 C.ar      1 UNK         0.0000 
  16865 C(2)       51.2740    6.6817   11.7893 C.ar      1 UNK         0.0000 
  16866 C(3)       51.2670    8.0735   11.7858 C.ar      1 UNK         0.0000 
  16867 C(4)       52.3370    8.7881   12.3181 C.ar      1 UNK         0.0000 
  16868 C(5)       53.4326    8.1002   12.8383 C.ar      1 UNK         0.0000 
  16869 C(6)       53.4379    6.7126   12.8470 C.ar      1 UNK         0.0000 
  16870 C(7)       51.4649    3.6797   12.3420 C.2       1 UNK         0.0000 
  16871 C(8)       51.9057    2.2456   12.4630 C.3       1 UNK         0.0000 
  16872 H(1)       50.4335    6.1391   11.3746 H         1 UNK         0.0000 
  16873 H(2)       50.4162    8.5900   11.3587 H         1 UNK         0.0000 
  16874 H(3)       54.2758    8.6494   13.2386 H         1 UNK         0.0000 
  16875 H(4)       54.2886    6.1791   13.2530 H         1 UNK         0.0000 
  16876 H(5)       53.1457   10.5320   12.4649 H         1 UNK         0.0000 
  16877 H(6)       53.3816    4.2215   12.5580 H         1 UNK         0.0000 
  16878 H(7)       51.8275    1.7825   11.5138 H         1 UNK         0.0000 
  16879 H(8)       52.9025    2.1474   12.8070 H         1 UNK         0.0000 
  16880 H(9)       51.2252    1.7279   13.0878 H         1 UNK         0.0000 
  16881 O(1)       56.6062   18.3650   13.4097 O.3       1 UNK         0.0000 
  16882 O(2)       54.6084   17.1249   19.4537 O.2       1 UNK         0.0000 
  16883 N(1)       56.7895   17.0743   18.8228 N.am      1 UNK         0.0000 
  16884 C(1)       56.6901   17.4332   17.4599 C.ar      1 UNK         0.0000 
  16885 C(2)       55.6079   18.1191   16.9087 C.ar      1 UNK         0.0000 
  16886 C(3)       55.6009   18.4278   15.5516 C.ar      1 UNK         0.0000 
  16887 C(4)       56.6709   18.0652   14.7376 C.ar      1 UNK         0.0000 
  16888 C(5)       57.7665   17.4068   15.2947 C.ar      1 UNK         0.0000 
  16889 C(6)       57.7718   17.0939   16.6465 C.ar      1 UNK         0.0000 
  16890 C(7)       55.7988   16.9215   19.7163 C.2       1 UNK         0.0000 
  16891 C(8)       56.2396   16.4888   21.0890 C.3       1 UNK         0.0000 
  16892 H(1)       54.7674   18.4047   17.5290 H         1 UNK         0.0000 
  16893 H(2)       54.7501   18.9577   15.1413 H         1 UNK         0.0000 
  16894 H(3)       58.6097   17.1367   14.6710 H         1 UNK         0.0000 
  16895 H(4)       58.6224   16.5809   17.0780 H         1 UNK         0.0000 
  16896 H(5)       57.4796   18.3045   13.0039 H         1 UNK         0.0000 
  16897 H(6)       57.7155   16.8295   19.1403 H         1 UNK         0.0000 
  16898 H(7)       56.1613   17.3133   21.7490 H         1 UNK         0.0000 
  16899 H(8)       57.2364   16.1317   21.1093 H         1 UNK         0.0000 
  16900 H(9)       55.5591   15.7657   21.4570 H         1 UNK         0.0000 
  16901 O(1)       60.9597    7.0435   16.5945 O.3       1 UNK         0.0000 
  16902 O(2)       62.9575   13.2123   16.7103 O.2       1 UNK         0.0000 
  16903 N(1)       60.7764   12.6079   16.5226 N.am      1 UNK         0.0000 
  16904 C(1)       60.8758   11.1994   16.5738 C.ar      1 UNK         0.0000 
  16905 C(2)       61.9580   10.5112   17.1221 C.ar      1 UNK         0.0000 
  16906 C(3)       61.9650    9.1194   17.1257 C.ar      1 UNK         0.0000 
  16907 C(4)       60.8950    8.4048   16.5933 C.ar      1 UNK         0.0000 
  16908 C(5)       59.7994    9.0927   16.0731 C.ar      1 UNK         0.0000 
  16909 C(6)       59.7941   10.4803   16.0644 C.ar      1 UNK         0.0000 
  16910 C(7)       61.7671   13.5132   16.5694 C.2       1 UNK         0.0000 
  16911 C(8)       61.3263   14.9473   16.4484 C.3       1 UNK         0.0000 
  16912 H(1)       62.7985   11.0538   17.5368 H         1 UNK         0.0000 
  16913 H(2)       62.8158    8.6029   17.5527 H         1 UNK         0.0000 
  16914 H(3)       58.9562    8.5435   15.6728 H         1 UNK         0.0000 
  16915 H(4)       58.9434   11.0138   15.6585 H         1 UNK         0.0000 
  16916 H(5)       60.0863    6.6609   16.4465 H         1 UNK         0.0000 
  16917 H(6)       59.8504   12.9713   16.3534 H         1 UNK         0.0000 
  16918 H(7)       61.4045   15.4104   17.3976 H         1 UNK         0.0000 
  16919 H(8)       60.3295   15.0455   16.1044 H         1 UNK         0.0000 
  16920 H(9)       62.0068   15.4650   15.8236 H         1 UNK         0.0000 
  16921 O(1)       56.6258    4.5589   22.6641 O.3       1 UNK         0.0000 
  16922 O(2)       58.6236    5.7989   16.6201 O.2       1 UNK         0.0000 
  16923 N(1)       56.4425    5.8496   17.2510 N.am      1 UNK         0.0000 
  16924 C(1)       56.5419    5.4907   18.6139 C.ar      1 UNK         0.0000 
  16925 C(2)       57.6241    4.8048   19.1651 C.ar      1 UNK         0.0000 
  16926 C(3)       57.6311    4.4960   20.5223 C.ar      1 UNK         0.0000 
  16927 C(4)       56.5611    4.8587   21.3362 C.ar      1 UNK         0.0000 
  16928 C(5)       55.4655    5.5171   20.7791 C.ar      1 UNK         0.0000 
  16929 C(6)       55.4602    5.8299   19.4273 C.ar      1 UNK         0.0000 
  16930 C(7)       57.4332    6.0024   16.3575 C.2       1 UNK         0.0000 
  16931 C(8)       56.9924    6.4350   14.9848 C.3       1 UNK         0.0000 
  16932 H(1)       58.4646    4.5191   18.5448 H         1 UNK         0.0000 
  16933 H(2)       58.4819    3.9661   20.9325 H         1 UNK         0.0000 
  16934 H(3)       54.6223    5.7872   21.4028 H         1 UNK         0.0000 
  16935 H(4)       54.6096    6.3430   18.9958 H         1 UNK         0.0000 
  16936 H(5)       55.7524    4.6194   23.0699 H         1 UNK         0.0000 
  16937 H(6)       55.5165    6.0943   16.9335 H         1 UNK         0.0000 
  16938 H(7)       57.0707    5.6106   14.3248 H         1 UNK         0.0000 
  16939 H(8)       55.9956    6.7922   14.9645 H         1 UNK         0.0000 
  16940 H(9)       57.6729    7.1582   14.6168 H         1 UNK         0.0000 
  16941 O(1)       59.3493   15.8804   19.4793 O.3       1 UNK         0.0000 
  16942 O(2)       57.3515    9.7116   19.3635 O.2       1 UNK         0.0000 
  16943 N(1)       59.5326   10.3160   19.5512 N.am      1 UNK         0.0000 
  16944 C(1)       59.4332   11.7244   19.5000 C.ar      1 UNK         0.0000 
  16945 C(2)       58.3510   12.4126   18.9517 C.ar      1 UNK         0.0000 
  16946 C(3)       58.3440   13.8044   18.9482 C.ar      1 UNK         0.0000 
  16947 C(4)       59.4140   14.5191   19.4805 C.ar      1 UNK         0.0000 
  16948 C(5)       60.5096   13.8311   20.0007 C.ar      1 UNK         0.0000 
  16949 C(6)       60.5149   12.4436   20.0094 C.ar      1 UNK         0.0000 
  16950 C(7)       58.5419    9.4107   19.5044 C.2       1 UNK         0.0000 
  16951 C(8)       58.9827    7.9766   19.6254 C.3       1 UNK         0.0000 
  16952 H(1)       57.5105   11.8701   18.5370 H         1 UNK         0.0000 
  16953 H(2)       57.4932   14.3209   18.5211 H         1 UNK         0.0000 
  16954 H(3)       61.3528   14.3804   20.4010 H         1 UNK         0.0000 
  16955 H(4)       61.3656   11.9101   20.4154 H         1 UNK         0.0000 
  16956 H(5)       60.2227   16.2630   19.6273 H         1 UNK         0.0000 
  16957 H(6)       60.4586    9.9525   19.7204 H         1 UNK         0.0000 
  16958 H(7)       58.9045    7.5134   18.6762 H         1 UNK         0.0000 
  16959 H(8)       59.9795    7.8784   19.9694 H         1 UNK         0.0000 
  16960 H(9)       58.3022    7.4589   20.2502 H         1 UNK         0.0000 
  16961 O(1)       55.0154    9.4136   20.5721 O.3       1 UNK         0.0000 
  16962 O(2)       53.0176    8.1736   26.6161 O.2       1 UNK         0.0000 
  16963 N(1)       55.1987    8.1229   25.9852 N.am      1 UNK         0.0000 
  16964 C(1)       55.0993    8.4818   24.6223 C.ar      1 UNK         0.0000 
  16965 C(2)       54.0171    9.1677   24.0711 C.ar      1 UNK         0.0000 
  16966 C(3)       54.0101    9.4765   22.7140 C.ar      1 UNK         0.0000 
  16967 C(4)       55.0801    9.1138   21.9000 C.ar      1 UNK         0.0000 
  16968 C(5)       56.1757    8.4554   22.4571 C.ar      1 UNK         0.0000 
  16969 C(6)       56.1810    8.1426   23.8089 C.ar      1 UNK         0.0000 
  16970 C(7)       54.2080    7.9701   26.8787 C.2       1 UNK         0.0000 
  16971 C(8)       54.6488    7.5375   28.2514 C.3       1 UNK         0.0000 
  16972 H(1)       53.1766    9.4534   24.6914 H         1 UNK         0.0000 
  16973 H(2)       53.1593   10.0064   22.3037 H         1 UNK         0.0000 
  16974 H(3)       57.0189    8.1853   21.8334 H         1 UNK         0.0000 
  16975 H(4)       57.0317    7.6295   24.2404 H         1 UNK         0.0000 
  16976 H(5)       55.8889    9.3531   20.1663 H         1 UNK         0.0000 
  16977 H(6)       56.1247    7.8782   26.3027 H         1 UNK         0.0000 
  16978 H(7)       54.5706    8.3619   28.9114 H         1 UNK         0.0000 
  16979 H(8)       55.6456    7.1803   28.2717 H         1 UNK         0.0000 
  16980 H(9)       53.9683    6.8143   28.6194 H         1 UNK         0.0000 
  16981 O(1)       53.8827   12.7745   23.7569 O.3       1 UNK         0.0000 
  16982 O(2)       55.8805   18.9433   23.8727 O.2       1 UNK         0.0000 
  16983 N(1)       53.6994   18.3389   23.6850 N.am      1 UNK         0.0000 
  16984 C(1)       53.7988   16.9304   23.7362 C.ar      1 UNK         0.0000 
  16985 C(2)       54.8810   16.2422   24.2845 C.ar      1 UNK         0.0000 
  16986 C(3)       54.8880   14.8504   24.2881 C.ar      1 UNK         0.0000 
  16987 C(4)       53.8180   14.1358   23.7557 C.ar      1 UNK         0.0000 
  16988 C(5)       52.7224   14.8237   23.2355 C.ar      1 UNK         0.0000 
  16989 C(6)       52.7171   16.2112   23.2268 C.ar      1 UNK         0.0000 
  16990 C(7)       54.6901   19.2442   23.7318 C.2       1 UNK         0.0000 
  16991 C(8)       54.2493   20.6783   23.6108 C.3       1 UNK         0.0000 
  16992 H(1)       55.7215   16.7847   24.6992 H         1 UNK         0.0000 
  16993 H(2)       55.7388   14.3339   24.7151 H         1 UNK         0.0000 
  16994 H(3)       51.8792   14.2744   22.8352 H         1 UNK         0.0000 
  16995 H(4)       51.8665   16.7448   22.8209 H         1 UNK         0.0000 
  16996 H(5)       53.0093   12.3919   23.6089 H         1 UNK         0.0000 
  16997 H(6)       52.7734   18.7023   23.5158 H         1 UNK         0.0000 
  16998 H(7)       54.3275   21.1414   24.5600 H         1 UNK         0.0000 
  16999 H(8)       53.2525   20.7764   23.2668 H         1 UNK         0.0000 
  17000 H(9)       54.9298   21.1960   22.9860 H         1 UNK         0.0000 
  17001 O(1)       58.2166    7.7793    8.3393 O.3       1 UNK         0.0000 
  17002 O(2)       60.2144    9.0193    2.2953 O.2       1 UNK         0.0000 
  17003 N(1)       58.0333    9.0700    2.9262 N.am      1 UNK         0.0000 
  17004 C(1)       58.1327    8.7111    4.2891 C.ar      1 UNK         0.0000 
  17005 C(2)       59.2149    8.0252    4.8403 C.ar      1 UNK         0.0000 
  17006 C(3)       59.2219    7.7164    6.1975 C.ar      1 UNK         0.0000 
  17007 C(4)       58.1519    8.0791    7.0114 C.ar      1 UNK         0.0000 
  17008 C(5)       57.0563    8.7375    6.4543 C.ar      1 UNK         0.0000 
  17009 C(6)       57.0510    9.0503    5.1025 C.ar      1 UNK         0.0000 
  17010 C(7)       59.0240    9.2228    2.0327 C.2       1 UNK         0.0000 
  17011 C(8)       58.5832    9.6554    0.6600 C.3       1 UNK         0.0000 
  17012 H(1)       60.0554    7.7395    4.2200 H         1 UNK         0.0000 
  17013 H(2)       60.0727    7.1865    6.6077 H         1 UNK         0.0000 
  17014 H(3)       56.2131    9.0076    7.0780 H         1 UNK         0.0000 
  17015 H(4)       56.2003    9.5634    4.6710 H         1 UNK         0.0000 
  17016 H(5)       57.3431    7.8398    8.7451 H         1 UNK         0.0000 
  17017 H(6)       57.1073    9.3147    2.6087 H         1 UNK         0.0000 
  17018 H(7)       58.6614    8.8310    0.0000 H         1 UNK         0.0000 
  17019 H(8)       57.5864   10.0126    0.6397 H         1 UNK         0.0000 
  17020 H(9)       59.2637   10.3786    0.2920 H         1 UNK         0.0000 
  17021 O(1)       60.9401   19.1008    5.1545 O.3       1 UNK         0.0000 
  17022 O(2)       58.9423   12.9320    5.0387 O.2       1 UNK         0.0000 
  17023 N(1)       61.1234   13.5364    5.2264 N.am      1 UNK         0.0000 
  17024 C(1)       61.0240   14.9448    5.1752 C.ar      1 UNK         0.0000 
  17025 C(2)       59.9418   15.6330    4.6269 C.ar      1 UNK         0.0000 
  17026 C(3)       59.9348   17.0248    4.6234 C.ar      1 UNK         0.0000 
  17027 C(4)       61.0048   17.7395    5.1557 C.ar      1 UNK         0.0000 
  17028 C(5)       62.1004   17.0515    5.6759 C.ar      1 UNK         0.0000 
  17029 C(6)       62.1057   15.6640    5.6846 C.ar      1 UNK         0.0000 
  17030 C(7)       60.1326   12.6311    5.1796 C.2       1 UNK         0.0000 
  17031 C(8)       60.5735   11.1969    5.3006 C.3       1 UNK         0.0000 
  17032 H(1)       59.1013   15.0905    4.2122 H         1 UNK         0.0000 
  17033 H(2)       59.0840   17.5413    4.1963 H         1 UNK         0.0000 
  17034 H(3)       62.9436   17.6008    6.0762 H         1 UNK         0.0000 
  17035 H(4)       62.9563   15.1305    6.0906 H         1 UNK         0.0000 
  17036 H(5)       61.8135   19.4834    5.3025 H         1 UNK         0.0000 
  17037 H(6)       62.0494   13.1729    5.3956 H         1 UNK         0.0000 
  17038 H(7)       60.4952   10.7338    4.3514 H         1 UNK         0.0000 
  17039 H(8)       61.5703   11.0988    5.6446 H         1 UNK         0.0000 
  17040 H(9)       59.8930   10.6793    5.9254 H         1 UNK         0.0000 
  17041 O(1)       58.1970   27.3164    6.2473 O.3       1 UNK         0.0000 
  17042 O(2)       56.1992   26.0763   12.2913 O.2       1 UNK         0.0000 
  17043 N(1)       58.3803   26.0256   11.6604 N.am      1 UNK         0.0000 
  17044 C(1)       58.2809   26.3846   10.2975 C.ar      1 UNK         0.0000 
  17045 C(2)       57.1987   27.0704    9.7463 C.ar      1 UNK         0.0000 
  17046 C(3)       57.1917   27.3792    8.3892 C.ar      1 UNK         0.0000 
  17047 C(4)       58.2617   27.0165    7.5752 C.ar      1 UNK         0.0000 
  17048 C(5)       59.3573   26.3582    8.1323 C.ar      1 UNK         0.0000 
  17049 C(6)       59.3626   26.0453    9.4841 C.ar      1 UNK         0.0000 
  17050 C(7)       57.3895   25.8728   12.5539 C.2       1 UNK         0.0000 
  17051 C(8)       57.8304   25.4402   13.9266 C.3       1 UNK         0.0000 
  17052 H(1)       56.3582   27.3561   10.3666 H         1 UNK         0.0000 
  17053 H(2)       56.3409   27.9091    7.9789 H         1 UNK         0.0000 
  17054 H(3)       60.2005   26.0881    7.5086 H         1 UNK         0.0000 
  17055 H(4)       60.2132   25.5322    9.9156 H         1 UNK         0.0000 
  17056 H(5)       59.0704   27.2558    5.8415 H         1 UNK         0.0000 
  17057 H(6)       59.3063   25.7809   11.9779 H         1 UNK         0.0000 
  17058 H(7)       57.7521   26.2646   14.5866 H         1 UNK         0.0000 
  17059 H(8)       58.8272   25.0830   13.9469 H         1 UNK         0.0000 
  17060 H(9)       57.1499   24.7171   14.2946 H         1 UNK         0.0000 
  17061 O(1)       62.5505   15.9949    9.4321 O.3       1 UNK         0.0000 
  17062 O(2)       64.5483   22.1637    9.5479 O.2       1 UNK         0.0000 
  17063 N(1)       62.3671   21.5592    9.3602 N.am      1 UNK         0.0000 
  17064 C(1)       62.4666   20.1508    9.4114 C.ar      1 UNK         0.0000 
  17065 C(2)       63.5488   19.4626    9.9597 C.ar      1 UNK         0.0000 
  17066 C(3)       63.5558   18.0708    9.9633 C.ar      1 UNK         0.0000 
  17067 C(4)       62.4858   17.3562    9.4309 C.ar      1 UNK         0.0000 
  17068 C(5)       61.3902   18.0441    8.9107 C.ar      1 UNK         0.0000 
  17069 C(6)       61.3848   19.4316    8.9020 C.ar      1 UNK         0.0000 
  17070 C(7)       63.3579   22.4646    9.4070 C.2       1 UNK         0.0000 
  17071 C(8)       62.9171   23.8987    9.2860 C.3       1 UNK         0.0000 
  17072 H(1)       64.3893   20.0051   10.3744 H         1 UNK         0.0000 
  17073 H(2)       64.4066   17.5543   10.3903 H         1 UNK         0.0000 
  17074 H(3)       60.5470   17.4948    8.5104 H         1 UNK         0.0000 
  17075 H(4)       60.5342   19.9652    8.4961 H         1 UNK         0.0000 
  17076 H(5)       61.6770   15.6123    9.2841 H         1 UNK         0.0000 
  17077 H(6)       61.4412   21.9227    9.1910 H         1 UNK         0.0000 
  17078 H(7)       62.9953   24.3618   10.2352 H         1 UNK         0.0000 
  17079 H(8)       61.9203   23.9968    8.9420 H         1 UNK         0.0000 
  17080 H(9)       63.5975   24.4164    8.6612 H         1 UNK         0.0000 
  17081 O(1)       52.7304   28.1926   15.5017 O.3       1 UNK         0.0000 
  17082 O(2)       54.7282   29.4326    9.4577 O.2       1 UNK         0.0000 
  17083 N(1)       52.5470   29.4833   10.0886 N.am      1 UNK         0.0000 
  17084 C(1)       52.6465   29.1244   11.4515 C.ar      1 UNK         0.0000 
  17085 C(2)       53.7286   28.4385   12.0027 C.ar      1 UNK         0.0000 
  17086 C(3)       53.7357   28.1297   13.3599 C.ar      1 UNK         0.0000 
  17087 C(4)       52.6657   28.4924   14.1738 C.ar      1 UNK         0.0000 
  17088 C(5)       51.5700   29.1508   13.6167 C.ar      1 UNK         0.0000 
  17089 C(6)       51.5647   29.4636   12.2649 C.ar      1 UNK         0.0000 
  17090 C(7)       53.5378   29.6361    9.1951 C.2       1 UNK         0.0000 
  17091 C(8)       53.0970   30.0687    7.8224 C.3       1 UNK         0.0000 
  17092 H(1)       54.5692   28.1528   11.3824 H         1 UNK         0.0000 
  17093 H(2)       54.5865   27.5998   13.7701 H         1 UNK         0.0000 
  17094 H(3)       50.7269   29.4209   14.2404 H         1 UNK         0.0000 
  17095 H(4)       50.7141   29.9767   11.8334 H         1 UNK         0.0000 
  17096 H(5)       51.8569   28.2531   15.9075 H         1 UNK         0.0000 
  17097 H(6)       51.6211   29.7280    9.7711 H         1 UNK         0.0000 
  17098 H(7)       53.1752   29.2443    7.1624 H         1 UNK         0.0000 
  17099 H(8)       52.1002   30.4259    7.8021 H         1 UNK         0.0000 
  17100 H(9)       53.7774   30.7919    7.4544 H         1 UNK         0.0000 
  17101 O(1)       53.8631   24.8317   12.3169 O.3       1 UNK         0.0000 
  17102 O(2)       51.8653   18.6629   12.2011 O.2       1 UNK         0.0000 
  17103 N(1)       54.0464   19.2673   12.3888 N.am      1 UNK         0.0000 
  17104 C(1)       53.9470   20.6758   12.3376 C.ar      1 UNK         0.0000 
  17105 C(2)       52.8648   21.3640   11.7893 C.ar      1 UNK         0.0000 
  17106 C(3)       52.8578   22.7558   11.7858 C.ar      1 UNK         0.0000 
  17107 C(4)       53.9278   23.4704   12.3181 C.ar      1 UNK         0.0000 
  17108 C(5)       55.0234   22.7825   12.8383 C.ar      1 UNK         0.0000 
  17109 C(6)       55.0287   21.3950   12.8470 C.ar      1 UNK         0.0000 
  17110 C(7)       53.0556   18.3620   12.3420 C.2       1 UNK         0.0000 
  17111 C(8)       53.4965   16.9279   12.4630 C.3       1 UNK         0.0000 
  17112 H(1)       52.0243   20.8215   11.3746 H         1 UNK         0.0000 
  17113 H(2)       52.0070   23.2723   11.3587 H         1 UNK         0.0000 
  17114 H(3)       55.8666   23.3317   13.2386 H         1 UNK         0.0000 
  17115 H(4)       55.8793   20.8614   13.2530 H         1 UNK         0.0000 
  17116 H(5)       54.7365   25.2143   12.4649 H         1 UNK         0.0000 
  17117 H(6)       54.9724   18.9039   12.5580 H         1 UNK         0.0000 
  17118 H(7)       53.4182   16.4648   11.5138 H         1 UNK         0.0000 
  17119 H(8)       54.4933   16.8298   12.8070 H         1 UNK         0.0000 
  17120 H(9)       52.8160   16.4102   13.0878 H         1 UNK         0.0000 
  17121 O(1)       58.1970   33.0473   13.4097 O.3       1 UNK         0.0000 
  17122 O(2)       56.1992   31.8072   19.4537 O.2       1 UNK         0.0000 
  17123 N(1)       58.3803   31.7566   18.8228 N.am      1 UNK         0.0000 
  17124 C(1)       58.2809   32.1155   17.4599 C.ar      1 UNK         0.0000 
  17125 C(2)       57.1987   32.8014   16.9087 C.ar      1 UNK         0.0000 
  17126 C(3)       57.1917   33.1102   15.5516 C.ar      1 UNK         0.0000 
  17127 C(4)       58.2617   32.7475   14.7376 C.ar      1 UNK         0.0000 
  17128 C(5)       59.3573   32.0891   15.2947 C.ar      1 UNK         0.0000 
  17129 C(6)       59.3626   31.7763   16.6465 C.ar      1 UNK         0.0000 
  17130 C(7)       57.3895   31.6038   19.7163 C.2       1 UNK         0.0000 
  17131 C(8)       57.8304   31.1711   21.0890 C.3       1 UNK         0.0000 
  17132 H(1)       56.3582   33.0871   17.5290 H         1 UNK         0.0000 
  17133 H(2)       56.3409   33.6401   15.1413 H         1 UNK         0.0000 
  17134 H(3)       60.2005   31.8190   14.6710 H         1 UNK         0.0000 
  17135 H(4)       60.2132   31.2632   17.0780 H         1 UNK         0.0000 
  17136 H(5)       59.0704   32.9868   13.0039 H         1 UNK         0.0000 
  17137 H(6)       59.3063   31.5119   19.1403 H         1 UNK         0.0000 
  17138 H(7)       57.7521   31.9956   21.7490 H         1 UNK         0.0000 
  17139 H(8)       58.8272   30.8140   21.1093 H         1 UNK         0.0000 
  17140 H(9)       57.1499   30.4480   21.4570 H         1 UNK         0.0000 
  17141 O(1)       62.5505   21.7258   16.5945 O.3       1 UNK         0.0000 
  17142 O(2)       64.5483   27.8946   16.7103 O.2       1 UNK         0.0000 
  17143 N(1)       62.3671   27.2902   16.5226 N.am      1 UNK         0.0000 
  17144 C(1)       62.4666   25.8818   16.5738 C.ar      1 UNK         0.0000 
  17145 C(2)       63.5488   25.1936   17.1221 C.ar      1 UNK         0.0000 
  17146 C(3)       63.5558   23.8017   17.1257 C.ar      1 UNK         0.0000 
  17147 C(4)       62.4858   23.0871   16.5933 C.ar      1 UNK         0.0000 
  17148 C(5)       61.3902   23.7751   16.0731 C.ar      1 UNK         0.0000 
  17149 C(6)       61.3848   25.1626   16.0644 C.ar      1 UNK         0.0000 
  17150 C(7)       63.3579   28.1955   16.5694 C.2       1 UNK         0.0000 
  17151 C(8)       62.9171   29.6296   16.4484 C.3       1 UNK         0.0000 
  17152 H(1)       64.3893   25.7361   17.5368 H         1 UNK         0.0000 
  17153 H(2)       64.4066   23.2853   17.5527 H         1 UNK         0.0000 
  17154 H(3)       60.5470   23.2258   15.6728 H         1 UNK         0.0000 
  17155 H(4)       60.5342   25.6961   15.6585 H         1 UNK         0.0000 
  17156 H(5)       61.6770   21.3432   16.4465 H         1 UNK         0.0000 
  17157 H(6)       61.4412   27.6537   16.3534 H         1 UNK         0.0000 
  17158 H(7)       62.9953   30.0928   17.3976 H         1 UNK         0.0000 
  17159 H(8)       61.9203   29.7278   16.1044 H         1 UNK         0.0000 
  17160 H(9)       63.5975   30.1473   15.8236 H         1 UNK         0.0000 
  17161 O(1)       58.2166   19.2412   22.6641 O.3       1 UNK         0.0000 
  17162 O(2)       60.2144   20.4813   16.6201 O.2       1 UNK         0.0000 
  17163 N(1)       58.0333   20.5319   17.2510 N.am      1 UNK         0.0000 
  17164 C(1)       58.1327   20.1730   18.6139 C.ar      1 UNK         0.0000 
  17165 C(2)       59.2149   19.4871   19.1651 C.ar      1 UNK         0.0000 
  17166 C(3)       59.2219   19.1784   20.5223 C.ar      1 UNK         0.0000 
  17167 C(4)       58.1519   19.5410   21.3362 C.ar      1 UNK         0.0000 
  17168 C(5)       57.0563   20.1994   20.7791 C.ar      1 UNK         0.0000 
  17169 C(6)       57.0510   20.5123   19.4273 C.ar      1 UNK         0.0000 
  17170 C(7)       59.0240   20.6847   16.3575 C.2       1 UNK         0.0000 
  17171 C(8)       58.5832   21.1174   14.9848 C.3       1 UNK         0.0000 
  17172 H(1)       60.0554   19.2015   18.5448 H         1 UNK         0.0000 
  17173 H(2)       60.0727   18.6484   20.9325 H         1 UNK         0.0000 
  17174 H(3)       56.2131   20.4695   21.4028 H         1 UNK         0.0000 
  17175 H(4)       56.2003   21.0253   18.9958 H         1 UNK         0.0000 
  17176 H(5)       57.3431   19.3017   23.0699 H         1 UNK         0.0000 
  17177 H(6)       57.1073   20.7767   16.9335 H         1 UNK         0.0000 
  17178 H(7)       58.6614   20.2929   14.3248 H         1 UNK         0.0000 
  17179 H(8)       57.5864   21.4745   14.9645 H         1 UNK         0.0000 
  17180 H(9)       59.2637   21.8405   14.6168 H         1 UNK         0.0000 
  17181 O(1)       60.9401   30.5627   19.4793 O.3       1 UNK         0.0000 
  17182 O(2)       58.9423   24.3939   19.3635 O.2       1 UNK         0.0000 
  17183 N(1)       61.1234   24.9983   19.5512 N.am      1 UNK         0.0000 
  17184 C(1)       61.0240   26.4068   19.5000 C.ar      1 UNK         0.0000 
  17185 C(2)       59.9418   27.0950   18.9517 C.ar      1 UNK         0.0000 
  17186 C(3)       59.9348   28.4868   18.9482 C.ar      1 UNK         0.0000 
  17187 C(4)       61.0048   29.2014   19.4805 C.ar      1 UNK         0.0000 
  17188 C(5)       62.1004   28.5135   20.0007 C.ar      1 UNK         0.0000 
  17189 C(6)       62.1057   27.1259   20.0094 C.ar      1 UNK         0.0000 
  17190 C(7)       60.1326   24.0930   19.5044 C.2       1 UNK         0.0000 
  17191 C(8)       60.5735   22.6589   19.6254 C.3       1 UNK         0.0000 
  17192 H(1)       59.1013   26.5524   18.5370 H         1 UNK         0.0000 
  17193 H(2)       59.0840   29.0033   18.5211 H         1 UNK         0.0000 
  17194 H(3)       62.9436   29.0627   20.4010 H         1 UNK         0.0000 
  17195 H(4)       62.9563   26.5924   20.4154 H         1 UNK         0.0000 
  17196 H(5)       61.8135   30.9453   19.6273 H         1 UNK         0.0000 
  17197 H(6)       62.0494   24.6348   19.7204 H         1 UNK         0.0000 
  17198 H(7)       60.4952   22.1958   18.6762 H         1 UNK         0.0000 
  17199 H(8)       61.5703   22.5607   19.9694 H         1 UNK         0.0000 
  17200 H(9)       59.8930   22.1412   20.2502 H         1 UNK         0.0000 
  17201 O(1)       56.6062   24.0960   20.5721 O.3       1 UNK         0.0000 
  17202 O(2)       54.6084   22.8559   26.6161 O.2       1 UNK         0.0000 
  17203 N(1)       56.7895   22.8052   25.9852 N.am      1 UNK         0.0000 
  17204 C(1)       56.6901   23.1642   24.6223 C.ar      1 UNK         0.0000 
  17205 C(2)       55.6079   23.8500   24.0711 C.ar      1 UNK         0.0000 
  17206 C(3)       55.6009   24.1588   22.7140 C.ar      1 UNK         0.0000 
  17207 C(4)       56.6709   23.7962   21.9000 C.ar      1 UNK         0.0000 
  17208 C(5)       57.7665   23.1378   22.4571 C.ar      1 UNK         0.0000 
  17209 C(6)       57.7718   22.8249   23.8089 C.ar      1 UNK         0.0000 
  17210 C(7)       55.7988   22.6524   26.8787 C.2       1 UNK         0.0000 
  17211 C(8)       56.2396   22.2198   28.2514 C.3       1 UNK         0.0000 
  17212 H(1)       54.7674   24.1357   24.6914 H         1 UNK         0.0000 
  17213 H(2)       54.7501   24.6887   22.3037 H         1 UNK         0.0000 
  17214 H(3)       58.6097   22.8677   21.8334 H         1 UNK         0.0000 
  17215 H(4)       58.6224   22.3118   24.2404 H         1 UNK         0.0000 
  17216 H(5)       57.4796   24.0354   20.1663 H         1 UNK         0.0000 
  17217 H(6)       57.7155   22.5605   26.3027 H         1 UNK         0.0000 
  17218 H(7)       56.1613   23.0442   28.9114 H         1 UNK         0.0000 
  17219 H(8)       57.2364   21.8626   28.2717 H         1 UNK         0.0000 
  17220 H(9)       55.5591   21.4967   28.6194 H         1 UNK         0.0000 
  17221 O(1)       55.4735   27.4568   23.7569 O.3       1 UNK         0.0000 
  17222 O(2)       57.4713   33.6256   23.8727 O.2       1 UNK         0.0000 
  17223 N(1)       55.2901   33.0212   23.6850 N.am      1 UNK         0.0000 
  17224 C(1)       55.3896   31.6127   23.7362 C.ar      1 UNK         0.0000 
  17225 C(2)       56.4718   30.9245   24.2845 C.ar      1 UNK         0.0000 
  17226 C(3)       56.4788   29.5327   24.2881 C.ar      1 UNK         0.0000 
  17227 C(4)       55.4088   28.8181   23.7557 C.ar      1 UNK         0.0000 
  17228 C(5)       54.3132   29.5060   23.2355 C.ar      1 UNK         0.0000 
  17229 C(6)       54.3078   30.8936   23.2268 C.ar      1 UNK         0.0000 
  17230 C(7)       56.2809   33.9265   23.7318 C.2       1 UNK         0.0000 
  17231 C(8)       55.8401   35.3606   23.6108 C.3       1 UNK         0.0000 
  17232 H(1)       57.3123   31.4671   24.6992 H         1 UNK         0.0000 
  17233 H(2)       57.3296   29.0162   24.7151 H         1 UNK         0.0000 
  17234 H(3)       53.4700   28.9568   22.8352 H         1 UNK         0.0000 
  17235 H(4)       53.4572   31.4271   22.8209 H         1 UNK         0.0000 
  17236 H(5)       54.6000   27.0742   23.6089 H         1 UNK         0.0000 
  17237 H(6)       54.3642   33.3846   23.5158 H         1 UNK         0.0000 
  17238 H(7)       55.9183   35.8237   24.5600 H         1 UNK         0.0000 
  17239 H(8)       54.8433   35.4588   23.2668 H         1 UNK         0.0000 
  17240 H(9)       56.5205   35.8783   22.9860 H         1 UNK         0.0000 
  17241 O(1)       59.8074   22.4616    8.3393 O.3       1 UNK         0.0000 
  17242 O(2)       61.8052   23.7017    2.2953 O.2       1 UNK         0.0000 
  17243 N(1)       59.6240   23.7523    2.9262 N.am      1 UNK         0.0000 
  17244 C(1)       59.7235   23.3934    4.2891 C.ar      1 UNK         0.0000 
  17245 C(2)       60.8056   22.7075    4.8403 C.ar      1 UNK         0.0000 
  17246 C(3)       60.8127   22.3988    6.1975 C.ar      1 UNK         0.0000 
  17247 C(4)       59.7427   22.7614    7.0114 C.ar      1 UNK         0.0000 
  17248 C(5)       58.6470   23.4198    6.4543 C.ar      1 UNK         0.0000 
  17249 C(6)       58.6417   23.7327    5.1025 C.ar      1 UNK         0.0000 
  17250 C(7)       60.6148   23.9051    2.0327 C.2       1 UNK         0.0000 
  17251 C(8)       60.1740   24.3378    0.6600 C.3       1 UNK         0.0000 
  17252 H(1)       61.6462   22.4219    4.2200 H         1 UNK         0.0000 
  17253 H(2)       61.6635   21.8688    6.6077 H         1 UNK         0.0000 
  17254 H(3)       57.8039   23.6899    7.0780 H         1 UNK         0.0000 
  17255 H(4)       57.7911   24.2457    4.6710 H         1 UNK         0.0000 
  17256 H(5)       58.9339   22.5221    8.7451 H         1 UNK         0.0000 
  17257 H(6)       58.6981   23.9971    2.6087 H         1 UNK         0.0000 
  17258 H(7)       60.2522   23.5133    0.0000 H         1 UNK         0.0000 
  17259 H(8)       59.1772   24.6949    0.6397 H         1 UNK         0.0000 
  17260 H(9)       60.8544   25.0609    0.2920 H         1 UNK         0.0000 
  17261 O(1)       62.5309   33.7831    5.1545 O.3       1 UNK         0.0000 
  17262 O(2)       60.5331   27.6143    5.0387 O.2       1 UNK         0.0000 
  17263 N(1)       62.7142   28.2187    5.2264 N.am      1 UNK         0.0000 
  17264 C(1)       62.6148   29.6272    5.1752 C.ar      1 UNK         0.0000 
  17265 C(2)       61.5326   30.3154    4.6269 C.ar      1 UNK         0.0000 
  17266 C(3)       61.5256   31.7072    4.6234 C.ar      1 UNK         0.0000 
  17267 C(4)       62.5956   32.4218    5.1557 C.ar      1 UNK         0.0000 
  17268 C(5)       63.6912   31.7339    5.6759 C.ar      1 UNK         0.0000 
  17269 C(6)       63.6965   30.3463    5.6846 C.ar      1 UNK         0.0000 
  17270 C(7)       61.7234   27.3134    5.1796 C.2       1 UNK         0.0000 
  17271 C(8)       62.1643   25.8793    5.3006 C.3       1 UNK         0.0000 
  17272 H(1)       60.6921   29.7728    4.2122 H         1 UNK         0.0000 
  17273 H(2)       60.6748   32.2236    4.1963 H         1 UNK         0.0000 
  17274 H(3)       64.5344   32.2831    6.0762 H         1 UNK         0.0000 
  17275 H(4)       64.5471   29.8128    6.0906 H         1 UNK         0.0000 
  17276 H(5)       63.4043   34.1657    5.3025 H         1 UNK         0.0000 
  17277 H(6)       63.6402   27.8552    5.3956 H         1 UNK         0.0000 
  17278 H(7)       62.0860   25.4162    4.3514 H         1 UNK         0.0000 
  17279 H(8)       63.1611   25.7811    5.6446 H         1 UNK         0.0000 
  17280 H(9)       61.4838   25.3616    5.9254 H         1 UNK         0.0000 
  17281 O(1)       59.7878   41.9987    6.2473 O.3       1 UNK         0.0000 
  17282 O(2)       57.7900   40.7586   12.2913 O.2       1 UNK         0.0000 
  17283 N(1)       59.9711   40.7080   11.6604 N.am      1 UNK         0.0000 
  17284 C(1)       59.8716   41.0669   10.2975 C.ar      1 UNK         0.0000 
  17285 C(2)       58.7895   41.7528    9.7463 C.ar      1 UNK         0.0000 
  17286 C(3)       58.7825   42.0615    8.3892 C.ar      1 UNK         0.0000 
  17287 C(4)       59.8525   41.6989    7.5752 C.ar      1 UNK         0.0000 
  17288 C(5)       60.9481   41.0405    8.1323 C.ar      1 UNK         0.0000 
  17289 C(6)       60.9534   40.7276    9.4841 C.ar      1 UNK         0.0000 
  17290 C(7)       58.9803   40.5551   12.5539 C.2       1 UNK         0.0000 
  17291 C(8)       59.4212   40.1225   13.9266 C.3       1 UNK         0.0000 
  17292 H(1)       57.9490   42.0384   10.3666 H         1 UNK         0.0000 
  17293 H(2)       57.9316   42.5914    7.9789 H         1 UNK         0.0000 
  17294 H(3)       61.7913   40.7704    7.5086 H         1 UNK         0.0000 
  17295 H(4)       61.8040   40.2146    9.9156 H         1 UNK         0.0000 
  17296 H(5)       60.6612   41.9382    5.8415 H         1 UNK         0.0000 
  17297 H(6)       60.8971   40.4632   11.9779 H         1 UNK         0.0000 
  17298 H(7)       59.3429   40.9470   14.5866 H         1 UNK         0.0000 
  17299 H(8)       60.4180   39.7654   13.9469 H         1 UNK         0.0000 
  17300 H(9)       58.7407   39.3994   14.2946 H         1 UNK         0.0000 
  17301 O(1)       64.1413   30.6772    9.4321 O.3       1 UNK         0.0000 
  17302 O(2)       66.1391   36.8460    9.5479 O.2       1 UNK         0.0000 
  17303 N(1)       63.9579   36.2416    9.3602 N.am      1 UNK         0.0000 
  17304 C(1)       64.0574   34.8331    9.4114 C.ar      1 UNK         0.0000 
  17305 C(2)       65.1395   34.1449    9.9597 C.ar      1 UNK         0.0000 
  17306 C(3)       65.1466   32.7531    9.9633 C.ar      1 UNK         0.0000 
  17307 C(4)       64.0765   32.0385    9.4309 C.ar      1 UNK         0.0000 
  17308 C(5)       62.9809   32.7264    8.9107 C.ar      1 UNK         0.0000 
  17309 C(6)       62.9756   34.1140    8.9020 C.ar      1 UNK         0.0000 
  17310 C(7)       64.9487   37.1469    9.4070 C.2       1 UNK         0.0000 
  17311 C(8)       64.5079   38.5810    9.2860 C.3       1 UNK         0.0000 
  17312 H(1)       65.9801   34.6875   10.3744 H         1 UNK         0.0000 
  17313 H(2)       65.9974   32.2366   10.3903 H         1 UNK         0.0000 
  17314 H(3)       62.1378   32.1772    8.5104 H         1 UNK         0.0000 
  17315 H(4)       62.1250   34.6475    8.4961 H         1 UNK         0.0000 
  17316 H(5)       63.2678   30.2946    9.2841 H         1 UNK         0.0000 
  17317 H(6)       63.0320   36.6050    9.1910 H         1 UNK         0.0000 
  17318 H(7)       64.5861   39.0441   10.2352 H         1 UNK         0.0000 
  17319 H(8)       63.5111   38.6792    8.9420 H         1 UNK         0.0000 
  17320 H(9)       65.1883   39.0987    8.6612 H         1 UNK         0.0000 
  17321 O(1)       54.3212   42.8749   15.5017 O.3       1 UNK         0.0000 
  17322 O(2)       56.3190   44.1150    9.4577 O.2       1 UNK         0.0000 
  17323 N(1)       54.1378   44.1656   10.0886 N.am      1 UNK         0.0000 
  17324 C(1)       54.2373   43.8067   11.4515 C.ar      1 UNK         0.0000 
  17325 C(2)       55.3194   43.1208   12.0027 C.ar      1 UNK         0.0000 
  17326 C(3)       55.3265   42.8120   13.3599 C.ar      1 UNK         0.0000 
  17327 C(4)       54.2564   43.1747   14.1738 C.ar      1 UNK         0.0000 
  17328 C(5)       53.1608   43.8331   13.6167 C.ar      1 UNK         0.0000 
  17329 C(6)       53.1555   44.1460   12.2649 C.ar      1 UNK         0.0000 
  17330 C(7)       55.1286   44.3184    9.1951 C.2       1 UNK         0.0000 
  17331 C(8)       54.6877   44.7511    7.8224 C.3       1 UNK         0.0000 
  17332 H(1)       56.1600   42.8352   11.3824 H         1 UNK         0.0000 
  17333 H(2)       56.1773   42.2821   13.7701 H         1 UNK         0.0000 
  17334 H(3)       52.3177   44.1032   14.2404 H         1 UNK         0.0000 
  17335 H(4)       52.3049   44.6590   11.8334 H         1 UNK         0.0000 
  17336 H(5)       53.4477   42.9354   15.9075 H         1 UNK         0.0000 
  17337 H(6)       53.2119   44.4103    9.7711 H         1 UNK         0.0000 
  17338 H(7)       54.7660   43.9266    7.1624 H         1 UNK         0.0000 
  17339 H(8)       53.6910   45.1082    7.8021 H         1 UNK         0.0000 
  17340 H(9)       55.3682   45.4742    7.4544 H         1 UNK         0.0000 
  17341 O(1)       55.4539   39.5141   12.3169 O.3       1 UNK         0.0000 
  17342 O(2)       53.4561   33.3453   12.2011 O.2       1 UNK         0.0000 
  17343 N(1)       55.6372   33.9497   12.3888 N.am      1 UNK         0.0000 
  17344 C(1)       55.5378   35.3581   12.3376 C.ar      1 UNK         0.0000 
  17345 C(2)       54.4556   36.0463   11.7893 C.ar      1 UNK         0.0000 
  17346 C(3)       54.4486   37.4381   11.7858 C.ar      1 UNK         0.0000 
  17347 C(4)       55.5186   38.1527   12.3181 C.ar      1 UNK         0.0000 
  17348 C(5)       56.6142   37.4648   12.8383 C.ar      1 UNK         0.0000 
  17349 C(6)       56.6195   36.0773   12.8470 C.ar      1 UNK         0.0000 
  17350 C(7)       54.6464   33.0444   12.3420 C.2       1 UNK         0.0000 
  17351 C(8)       55.0873   31.6102   12.4630 C.3       1 UNK         0.0000 
  17352 H(1)       53.6151   35.5038   11.3746 H         1 UNK         0.0000 
  17353 H(2)       53.5978   37.9546   11.3587 H         1 UNK         0.0000 
  17354 H(3)       57.4574   38.0141   13.2386 H         1 UNK         0.0000 
  17355 H(4)       57.4701   35.5438   13.2530 H         1 UNK         0.0000 
  17356 H(5)       56.3273   39.8967   12.4649 H         1 UNK         0.0000 
  17357 H(6)       56.5632   33.5862   12.5580 H         1 UNK         0.0000 
  17358 H(7)       55.0090   31.1471   11.5138 H         1 UNK         0.0000 
  17359 H(8)       56.0841   31.5121   12.8070 H         1 UNK         0.0000 
  17360 H(9)       54.4068   31.0926   13.0878 H         1 UNK         0.0000 
  17361 O(1)       59.7878   47.7297   13.4097 O.3       1 UNK         0.0000 
  17362 O(2)       57.7900   46.4896   19.4537 O.2       1 UNK         0.0000 
  17363 N(1)       59.9711   46.4389   18.8228 N.am      1 UNK         0.0000 
  17364 C(1)       59.8716   46.7979   17.4599 C.ar      1 UNK         0.0000 
  17365 C(2)       58.7895   47.4837   16.9087 C.ar      1 UNK         0.0000 
  17366 C(3)       58.7825   47.7925   15.5516 C.ar      1 UNK         0.0000 
  17367 C(4)       59.8525   47.4298   14.7376 C.ar      1 UNK         0.0000 
  17368 C(5)       60.9481   46.7715   15.2947 C.ar      1 UNK         0.0000 
  17369 C(6)       60.9534   46.4586   16.6465 C.ar      1 UNK         0.0000 
  17370 C(7)       58.9803   46.2861   19.7163 C.2       1 UNK         0.0000 
  17371 C(8)       59.4212   45.8535   21.0890 C.3       1 UNK         0.0000 
  17372 H(1)       57.9490   47.7694   17.5290 H         1 UNK         0.0000 
  17373 H(2)       57.9316   48.3224   15.1413 H         1 UNK         0.0000 
  17374 H(3)       61.7913   46.5014   14.6710 H         1 UNK         0.0000 
  17375 H(4)       61.8040   45.9455   17.0780 H         1 UNK         0.0000 
  17376 H(5)       60.6612   47.6691   13.0039 H         1 UNK         0.0000 
  17377 H(6)       60.8971   46.1942   19.1403 H         1 UNK         0.0000 
  17378 H(7)       59.3429   46.6779   21.7490 H         1 UNK         0.0000 
  17379 H(8)       60.4180   45.4963   21.1093 H         1 UNK         0.0000 
  17380 H(9)       58.7407   45.1304   21.4570 H         1 UNK         0.0000 
  17381 O(1)       64.1413   36.4082   16.5945 O.3       1 UNK         0.0000 
  17382 O(2)       66.1391   42.5769   16.7103 O.2       1 UNK         0.0000 
  17383 N(1)       63.9579   41.9725   16.5226 N.am      1 UNK         0.0000 
  17384 C(1)       64.0574   40.5641   16.5738 C.ar      1 UNK         0.0000 
  17385 C(2)       65.1395   39.8759   17.1221 C.ar      1 UNK         0.0000 
  17386 C(3)       65.1466   38.4841   17.1257 C.ar      1 UNK         0.0000 
  17387 C(4)       64.0765   37.7695   16.5933 C.ar      1 UNK         0.0000 
  17388 C(5)       62.9809   38.4574   16.0731 C.ar      1 UNK         0.0000 
  17389 C(6)       62.9756   39.8449   16.0644 C.ar      1 UNK         0.0000 
  17390 C(7)       64.9487   42.8779   16.5694 C.2       1 UNK         0.0000 
  17391 C(8)       64.5079   44.3120   16.4484 C.3       1 UNK         0.0000 
  17392 H(1)       65.9801   40.4184   17.5368 H         1 UNK         0.0000 
  17393 H(2)       65.9974   37.9676   17.5527 H         1 UNK         0.0000 
  17394 H(3)       62.1378   37.9081   15.6728 H         1 UNK         0.0000 
  17395 H(4)       62.1250   40.3784   15.6585 H         1 UNK         0.0000 
  17396 H(5)       63.2678   36.0256   16.4465 H         1 UNK         0.0000 
  17397 H(6)       63.0320   42.3360   16.3534 H         1 UNK         0.0000 
  17398 H(7)       64.5861   44.7751   17.3976 H         1 UNK         0.0000 
  17399 H(8)       63.5111   44.4101   16.1044 H         1 UNK         0.0000 
  17400 H(9)       65.1883   44.8296   15.8236 H         1 UNK         0.0000 
  17401 O(1)       59.8074   33.9235   22.6641 O.3       1 UNK         0.0000 
  17402 O(2)       61.8052   35.1636   16.6201 O.2       1 UNK         0.0000 
  17403 N(1)       59.6240   35.2142   17.2510 N.am      1 UNK         0.0000 
  17404 C(1)       59.7235   34.8553   18.6139 C.ar      1 UNK         0.0000 
  17405 C(2)       60.8056   34.1694   19.1651 C.ar      1 UNK         0.0000 
  17406 C(3)       60.8127   33.8607   20.5223 C.ar      1 UNK         0.0000 
  17407 C(4)       59.7427   34.2233   21.3362 C.ar      1 UNK         0.0000 
  17408 C(5)       58.6470   34.8817   20.7791 C.ar      1 UNK         0.0000 
  17409 C(6)       58.6417   35.1946   19.4273 C.ar      1 UNK         0.0000 
  17410 C(7)       60.6148   35.3671   16.3575 C.2       1 UNK         0.0000 
  17411 C(8)       60.1740   35.7997   14.9848 C.3       1 UNK         0.0000 
  17412 H(1)       61.6462   33.8838   18.5448 H         1 UNK         0.0000 
  17413 H(2)       61.6635   33.3308   20.9325 H         1 UNK         0.0000 
  17414 H(3)       57.8039   35.1518   21.4028 H         1 UNK         0.0000 
  17415 H(4)       57.7911   35.7077   18.9958 H         1 UNK         0.0000 
  17416 H(5)       58.9339   33.9840   23.0699 H         1 UNK         0.0000 
  17417 H(6)       58.6981   35.4590   16.9335 H         1 UNK         0.0000 
  17418 H(7)       60.2522   34.9753   14.3248 H         1 UNK         0.0000 
  17419 H(8)       59.1772   36.1568   14.9645 H         1 UNK         0.0000 
  17420 H(9)       60.8544   36.5228   14.6168 H         1 UNK         0.0000 
  17421 O(1)       62.5309   45.2450   19.4793 O.3       1 UNK         0.0000 
  17422 O(2)       60.5331   39.0762   19.3635 O.2       1 UNK         0.0000 
  17423 N(1)       62.7142   39.6806   19.5512 N.am      1 UNK         0.0000 
  17424 C(1)       62.6148   41.0891   19.5000 C.ar      1 UNK         0.0000 
  17425 C(2)       61.5326   41.7773   18.9517 C.ar      1 UNK         0.0000 
  17426 C(3)       61.5256   43.1691   18.9482 C.ar      1 UNK         0.0000 
  17427 C(4)       62.5956   43.8837   19.4805 C.ar      1 UNK         0.0000 
  17428 C(5)       63.6912   43.1958   20.0007 C.ar      1 UNK         0.0000 
  17429 C(6)       63.6965   41.8082   20.0094 C.ar      1 UNK         0.0000 
  17430 C(7)       61.7234   38.7753   19.5044 C.2       1 UNK         0.0000 
  17431 C(8)       62.1643   37.3412   19.6254 C.3       1 UNK         0.0000 
  17432 H(1)       60.6921   41.2348   18.5370 H         1 UNK         0.0000 
  17433 H(2)       60.6748   43.6856   18.5211 H         1 UNK         0.0000 
  17434 H(3)       64.5344   43.7450   20.4010 H         1 UNK         0.0000 
  17435 H(4)       64.5471   41.2747   20.4154 H         1 UNK         0.0000 
  17436 H(5)       63.4043   45.6276   19.6273 H         1 UNK         0.0000 
  17437 H(6)       63.6402   39.3172   19.7204 H         1 UNK         0.0000 
  17438 H(7)       62.0860   36.8781   18.6762 H         1 UNK         0.0000 
  17439 H(8)       63.1611   37.2431   19.9694 H         1 UNK         0.0000 
  17440 H(9)       61.4838   36.8235   20.2502 H         1 UNK         0.0000 
  17441 O(1)       58.1970   38.7783   20.5721 O.3       1 UNK         0.0000 
  17442 O(2)       56.1992   37.5382   26.6161 O.2       1 UNK         0.0000 
  17443 N(1)       58.3803   37.4876   25.9852 N.am      1 UNK         0.0000 
  17444 C(1)       58.2809   37.8465   24.6223 C.ar      1 UNK         0.0000 
  17445 C(2)       57.1987   38.5324   24.0711 C.ar      1 UNK         0.0000 
  17446 C(3)       57.1917   38.8411   22.7140 C.ar      1 UNK         0.0000 
  17447 C(4)       58.2617   38.4785   21.9000 C.ar      1 UNK         0.0000 
  17448 C(5)       59.3573   37.8201   22.4571 C.ar      1 UNK         0.0000 
  17449 C(6)       59.3626   37.5072   23.8089 C.ar      1 UNK         0.0000 
  17450 C(7)       57.3895   37.3347   26.8787 C.2       1 UNK         0.0000 
  17451 C(8)       57.8304   36.9021   28.2514 C.3       1 UNK         0.0000 
  17452 H(1)       56.3582   38.8180   24.6914 H         1 UNK         0.0000 
  17453 H(2)       56.3409   39.3710   22.3037 H         1 UNK         0.0000 
  17454 H(3)       60.2005   37.5500   21.8334 H         1 UNK         0.0000 
  17455 H(4)       60.2132   36.9942   24.2404 H         1 UNK         0.0000 
  17456 H(5)       59.0704   38.7178   20.1663 H         1 UNK         0.0000 
  17457 H(6)       59.3063   37.2428   26.3027 H         1 UNK         0.0000 
  17458 H(7)       57.7521   37.7266   28.9114 H         1 UNK         0.0000 
  17459 H(8)       58.8272   36.5450   28.2717 H         1 UNK         0.0000 
  17460 H(9)       57.1499   36.1790   28.6194 H         1 UNK         0.0000 
  17461 O(1)       57.0643   42.1391   23.7569 O.3       1 UNK         0.0000 
  17462 O(2)       59.0621   48.3079   23.8727 O.2       1 UNK         0.0000 
  17463 N(1)       56.8809   47.7035   23.6850 N.am      1 UNK         0.0000 
  17464 C(1)       56.9804   46.2951   23.7362 C.ar      1 UNK         0.0000 
  17465 C(2)       58.0625   45.6068   24.2845 C.ar      1 UNK         0.0000 
  17466 C(3)       58.0696   44.2150   24.2881 C.ar      1 UNK         0.0000 
  17467 C(4)       56.9995   43.5004   23.7557 C.ar      1 UNK         0.0000 
  17468 C(5)       55.9039   44.1884   23.2355 C.ar      1 UNK         0.0000 
  17469 C(6)       55.8986   45.5759   23.2268 C.ar      1 UNK         0.0000 
  17470 C(7)       57.8717   48.6088   23.7318 C.2       1 UNK         0.0000 
  17471 C(8)       57.4309   50.0429   23.6108 C.3       1 UNK         0.0000 
  17472 H(1)       58.9031   46.1494   24.6992 H         1 UNK         0.0000 
  17473 H(2)       58.9204   43.6986   24.7151 H         1 UNK         0.0000 
  17474 H(3)       55.0608   43.6391   22.8352 H         1 UNK         0.0000 
  17475 H(4)       55.0480   46.1094   22.8209 H         1 UNK         0.0000 
  17476 H(5)       56.1908   41.7565   23.6089 H         1 UNK         0.0000 
  17477 H(6)       55.9550   48.0670   23.5158 H         1 UNK         0.0000 
  17478 H(7)       57.5091   50.5060   24.5600 H         1 UNK         0.0000 
  17479 H(8)       56.4341   50.1411   23.2668 H         1 UNK         0.0000 
  17480 H(9)       58.1113   50.5606   22.9860 H         1 UNK         0.0000 
  17481 O(1)       61.3982   37.1439    8.3393 O.3       1 UNK         0.0000 
  17482 O(2)       63.3960   38.3840    2.2953 O.2       1 UNK         0.0000 
  17483 N(1)       61.2148   38.4346    2.9262 N.am      1 UNK         0.0000 
  17484 C(1)       61.3143   38.0757    4.2891 C.ar      1 UNK         0.0000 
  17485 C(2)       62.3964   37.3898    4.8403 C.ar      1 UNK         0.0000 
  17486 C(3)       62.4035   37.0811    6.1975 C.ar      1 UNK         0.0000 
  17487 C(4)       61.3334   37.4437    7.0114 C.ar      1 UNK         0.0000 
  17488 C(5)       60.2378   38.1021    6.4543 C.ar      1 UNK         0.0000 
  17489 C(6)       60.2325   38.4150    5.1025 C.ar      1 UNK         0.0000 
  17490 C(7)       62.2056   38.5875    2.0327 C.2       1 UNK         0.0000 
  17491 C(8)       61.7647   39.0201    0.6600 C.3       1 UNK         0.0000 
  17492 H(1)       63.2370   37.1042    4.2200 H         1 UNK         0.0000 
  17493 H(2)       63.2543   36.5512    6.6077 H         1 UNK         0.0000 
  17494 H(3)       59.3947   38.3722    7.0780 H         1 UNK         0.0000 
  17495 H(4)       59.3819   38.9281    4.6710 H         1 UNK         0.0000 
  17496 H(5)       60.5247   37.2044    8.7451 H         1 UNK         0.0000 
  17497 H(6)       60.2889   38.6794    2.6087 H         1 UNK         0.0000 
  17498 H(7)       61.8430   38.1956    0.0000 H         1 UNK         0.0000 
  17499 H(8)       60.7680   39.3772    0.6397 H         1 UNK         0.0000 
  17500 H(9)       62.4452   39.7432    0.2920 H         1 UNK         0.0000 
  17501 O(1)       64.1217   48.4654    5.1545 O.3       1 UNK         0.0000 
  17502 O(2)       62.1238   42.2966    5.0387 O.2       1 UNK         0.0000 
  17503 N(1)       64.3050   42.9010    5.2264 N.am      1 UNK         0.0000 
  17504 C(1)       64.2055   44.3095    5.1752 C.ar      1 UNK         0.0000 
  17505 C(2)       63.1234   44.9977    4.6269 C.ar      1 UNK         0.0000 
  17506 C(3)       63.1163   46.3895    4.6234 C.ar      1 UNK         0.0000 
  17507 C(4)       64.1864   47.1041    5.1557 C.ar      1 UNK         0.0000 
  17508 C(5)       65.2820   46.4162    5.6759 C.ar      1 UNK         0.0000 
  17509 C(6)       65.2873   45.0286    5.6846 C.ar      1 UNK         0.0000 
  17510 C(7)       63.3142   41.9957    5.1796 C.2       1 UNK         0.0000 
  17511 C(8)       63.7551   40.5616    5.3006 C.3       1 UNK         0.0000 
  17512 H(1)       62.2828   44.4552    4.2122 H         1 UNK         0.0000 
  17513 H(2)       62.2655   46.9060    4.1963 H         1 UNK         0.0000 
  17514 H(3)       66.1251   46.9654    6.0762 H         1 UNK         0.0000 
  17515 H(4)       66.1379   44.4951    6.0906 H         1 UNK         0.0000 
  17516 H(5)       64.9951   48.8480    5.3025 H         1 UNK         0.0000 
  17517 H(6)       65.2310   42.5376    5.3956 H         1 UNK         0.0000 
  17518 H(7)       63.6768   40.0985    4.3514 H         1 UNK         0.0000 
  17519 H(8)       64.7518   40.4635    5.6446 H         1 UNK         0.0000 
  17520 H(9)       63.0746   40.0439    5.9254 H         1 UNK         0.0000 
  17521 O(1)       61.3786   56.6810    6.2473 O.3       1 UNK         0.0000 
  17522 O(2)       59.3807   55.4409   12.2913 O.2       1 UNK         0.0000 
  17523 N(1)       61.5619   55.3903   11.6604 N.am      1 UNK         0.0000 
  17524 C(1)       61.4624   55.7492   10.2975 C.ar      1 UNK         0.0000 
  17525 C(2)       60.3803   56.4351    9.7463 C.ar      1 UNK         0.0000 
  17526 C(3)       60.3732   56.7439    8.3892 C.ar      1 UNK         0.0000 
  17527 C(4)       61.4433   56.3812    7.5752 C.ar      1 UNK         0.0000 
  17528 C(5)       62.5389   55.7228    8.1323 C.ar      1 UNK         0.0000 
  17529 C(6)       62.5442   55.4100    9.4841 C.ar      1 UNK         0.0000 
  17530 C(7)       60.5711   55.2375   12.5539 C.2       1 UNK         0.0000 
  17531 C(8)       61.0120   54.8048   13.9266 C.3       1 UNK         0.0000 
  17532 H(1)       59.5397   56.7208   10.3666 H         1 UNK         0.0000 
  17533 H(2)       59.5224   57.2738    7.9789 H         1 UNK         0.0000 
  17534 H(3)       63.3820   55.4527    7.5086 H         1 UNK         0.0000 
  17535 H(4)       63.3948   54.8969    9.9156 H         1 UNK         0.0000 
  17536 H(5)       62.2520   56.6205    5.8415 H         1 UNK         0.0000 
  17537 H(6)       62.4878   55.1456   11.9779 H         1 UNK         0.0000 
  17538 H(7)       60.9337   55.6293   14.5866 H         1 UNK         0.0000 
  17539 H(8)       62.0087   54.4477   13.9469 H         1 UNK         0.0000 
  17540 H(9)       60.3315   54.0817   14.2946 H         1 UNK         0.0000 
  17541 O(1)       65.7320   45.3595    9.4321 O.3       1 UNK         0.0000 
  17542 O(2)       67.7299   51.5283    9.5479 O.2       1 UNK         0.0000 
  17543 N(1)       65.5487   50.9239    9.3602 N.am      1 UNK         0.0000 
  17544 C(1)       65.6482   49.5155    9.4114 C.ar      1 UNK         0.0000 
  17545 C(2)       66.7303   48.8272    9.9597 C.ar      1 UNK         0.0000 
  17546 C(3)       66.7374   47.4354    9.9633 C.ar      1 UNK         0.0000 
  17547 C(4)       65.6673   46.7208    9.4309 C.ar      1 UNK         0.0000 
  17548 C(5)       64.5717   47.4088    8.9107 C.ar      1 UNK         0.0000 
  17549 C(6)       64.5664   48.7963    8.9020 C.ar      1 UNK         0.0000 
  17550 C(7)       66.5395   51.8292    9.4070 C.2       1 UNK         0.0000 
  17551 C(8)       66.0986   53.2633    9.2860 C.3       1 UNK         0.0000 
  17552 H(1)       67.5709   49.3698   10.3744 H         1 UNK         0.0000 
  17553 H(2)       67.5882   46.9190   10.3903 H         1 UNK         0.0000 
  17554 H(3)       63.7286   46.8595    8.5104 H         1 UNK         0.0000 
  17555 H(4)       63.7158   49.3298    8.4961 H         1 UNK         0.0000 
  17556 H(5)       64.8586   44.9769    9.2841 H         1 UNK         0.0000 
  17557 H(6)       64.6227   51.2874    9.1910 H         1 UNK         0.0000 
  17558 H(7)       66.1769   53.7264   10.2352 H         1 UNK         0.0000 
  17559 H(8)       65.1019   53.3615    8.9420 H         1 UNK         0.0000 
  17560 H(9)       66.7791   53.7810    8.6612 H         1 UNK         0.0000 
  17561 O(1)       55.9119   57.5572   15.5017 O.3       1 UNK         0.0000 
  17562 O(2)       57.9098   58.7973    9.4577 O.2       1 UNK         0.0000 
  17563 N(1)       55.7286   58.8479   10.0886 N.am      1 UNK         0.0000 
  17564 C(1)       55.8281   58.4890   11.4515 C.ar      1 UNK         0.0000 
  17565 C(2)       56.9102   57.8031   12.0027 C.ar      1 UNK         0.0000 
  17566 C(3)       56.9172   57.4944   13.3599 C.ar      1 UNK         0.0000 
  17567 C(4)       55.8472   57.8570   14.1738 C.ar      1 UNK         0.0000 
  17568 C(5)       54.7516   58.5154   13.6167 C.ar      1 UNK         0.0000 
  17569 C(6)       54.7463   58.8283   12.2649 C.ar      1 UNK         0.0000 
  17570 C(7)       56.7194   59.0008    9.1951 C.2       1 UNK         0.0000 
  17571 C(8)       56.2785   59.4334    7.8224 C.3       1 UNK         0.0000 
  17572 H(1)       57.7508   57.5175   11.3824 H         1 UNK         0.0000 
  17573 H(2)       57.7681   56.9645   13.7701 H         1 UNK         0.0000 
  17574 H(3)       53.9084   58.7855   14.2404 H         1 UNK         0.0000 
  17575 H(4)       53.8957   59.3414   11.8334 H         1 UNK         0.0000 
  17576 H(5)       55.0385   57.6177   15.9075 H         1 UNK         0.0000 
  17577 H(6)       54.8026   59.0927    9.7711 H         1 UNK         0.0000 
  17578 H(7)       56.3568   58.6089    7.1624 H         1 UNK         0.0000 
  17579 H(8)       55.2817   59.7905    7.8021 H         1 UNK         0.0000 
  17580 H(9)       56.9590   60.1565    7.4544 H         1 UNK         0.0000 
  17581 O(1)       57.0447   54.1964   12.3169 O.3       1 UNK         0.0000 
  17582 O(2)       55.0468   48.0276   12.2011 O.2       1 UNK         0.0000 
  17583 N(1)       57.2280   48.6320   12.3888 N.am      1 UNK         0.0000 
  17584 C(1)       57.1285   50.0404   12.3376 C.ar      1 UNK         0.0000 
  17585 C(2)       56.0464   50.7287   11.7893 C.ar      1 UNK         0.0000 
  17586 C(3)       56.0393   52.1205   11.7858 C.ar      1 UNK         0.0000 
  17587 C(4)       57.1094   52.8351   12.3181 C.ar      1 UNK         0.0000 
  17588 C(5)       58.2050   52.1472   12.8383 C.ar      1 UNK         0.0000 
  17589 C(6)       58.2103   50.7596   12.8470 C.ar      1 UNK         0.0000 
  17590 C(7)       56.2372   47.7267   12.3420 C.2       1 UNK         0.0000 
  17591 C(8)       56.6781   46.2926   12.4630 C.3       1 UNK         0.0000 
  17592 H(1)       55.2058   50.1861   11.3746 H         1 UNK         0.0000 
  17593 H(2)       55.1885   52.6369   11.3587 H         1 UNK         0.0000 
  17594 H(3)       59.0481   52.6964   13.2386 H         1 UNK         0.0000 
  17595 H(4)       59.0609   50.2261   13.2530 H         1 UNK         0.0000 
  17596 H(5)       57.9181   54.5790   12.4649 H         1 UNK         0.0000 
  17597 H(6)       58.1540   48.2685   12.5580 H         1 UNK         0.0000 
  17598 H(7)       56.5998   45.8295   11.5138 H         1 UNK         0.0000 
  17599 H(8)       57.6748   46.1944   12.8070 H         1 UNK         0.0000 
  17600 H(9)       55.9976   45.7749   13.0878 H         1 UNK         0.0000 
  17601 O(1)       61.3786   62.4120   13.4097 O.3       1 UNK         0.0000 
  17602 O(2)       59.3807   61.1719   19.4537 O.2       1 UNK         0.0000 
  17603 N(1)       61.5619   61.1213   18.8228 N.am      1 UNK         0.0000 
  17604 C(1)       61.4624   61.4802   17.4599 C.ar      1 UNK         0.0000 
  17605 C(2)       60.3803   62.1661   16.9087 C.ar      1 UNK         0.0000 
  17606 C(3)       60.3732   62.4748   15.5516 C.ar      1 UNK         0.0000 
  17607 C(4)       61.4433   62.1122   14.7376 C.ar      1 UNK         0.0000 
  17608 C(5)       62.5389   61.4538   15.2947 C.ar      1 UNK         0.0000 
  17609 C(6)       62.5442   61.1409   16.6465 C.ar      1 UNK         0.0000 
  17610 C(7)       60.5711   60.9684   19.7163 C.2       1 UNK         0.0000 
  17611 C(8)       61.0120   60.5358   21.0890 C.3       1 UNK         0.0000 
  17612 H(1)       59.5397   62.4517   17.5290 H         1 UNK         0.0000 
  17613 H(2)       59.5224   63.0047   15.1413 H         1 UNK         0.0000 
  17614 H(3)       63.3820   61.1837   14.6710 H         1 UNK         0.0000 
  17615 H(4)       63.3948   60.6279   17.0780 H         1 UNK         0.0000 
  17616 H(5)       62.2520   62.3515   13.0039 H         1 UNK         0.0000 
  17617 H(6)       62.4878   60.8765   19.1403 H         1 UNK         0.0000 
  17618 H(7)       60.9337   61.3603   21.7490 H         1 UNK         0.0000 
  17619 H(8)       62.0087   60.1787   21.1093 H         1 UNK         0.0000 
  17620 H(9)       60.3315   59.8127   21.4570 H         1 UNK         0.0000 
  17621 O(1)       65.7320   51.0905   16.5945 O.3       1 UNK         0.0000 
  17622 O(2)       67.7299   57.2593   16.7103 O.2       1 UNK         0.0000 
  17623 N(1)       65.5487   56.6549   16.5226 N.am      1 UNK         0.0000 
  17624 C(1)       65.6482   55.2464   16.5738 C.ar      1 UNK         0.0000 
  17625 C(2)       66.7303   54.5582   17.1221 C.ar      1 UNK         0.0000 
  17626 C(3)       66.7374   53.1664   17.1257 C.ar      1 UNK         0.0000 
  17627 C(4)       65.6673   52.4518   16.5933 C.ar      1 UNK         0.0000 
  17628 C(5)       64.5717   53.1397   16.0731 C.ar      1 UNK         0.0000 
  17629 C(6)       64.5664   54.5273   16.0644 C.ar      1 UNK         0.0000 
  17630 C(7)       66.5395   57.5602   16.5694 C.2       1 UNK         0.0000 
  17631 C(8)       66.0986   58.9943   16.4484 C.3       1 UNK         0.0000 
  17632 H(1)       67.5709   55.1008   17.5368 H         1 UNK         0.0000 
  17633 H(2)       67.5882   52.6499   17.5527 H         1 UNK         0.0000 
  17634 H(3)       63.7286   52.5905   15.6728 H         1 UNK         0.0000 
  17635 H(4)       63.7158   55.0608   15.6585 H         1 UNK         0.0000 
  17636 H(5)       64.8586   50.7079   16.4465 H         1 UNK         0.0000 
  17637 H(6)       64.6227   57.0183   16.3534 H         1 UNK         0.0000 
  17638 H(7)       66.1769   59.4574   17.3976 H         1 UNK         0.0000 
  17639 H(8)       65.1019   59.0924   16.1044 H         1 UNK         0.0000 
  17640 H(9)       66.7791   59.5120   15.8236 H         1 UNK         0.0000 
  17641 O(1)       61.3982   48.6059   22.6641 O.3       1 UNK         0.0000 
  17642 O(2)       63.3960   49.8459   16.6201 O.2       1 UNK         0.0000 
  17643 N(1)       61.2148   49.8966   17.2510 N.am      1 UNK         0.0000 
  17644 C(1)       61.3143   49.5377   18.6139 C.ar      1 UNK         0.0000 
  17645 C(2)       62.3964   48.8518   19.1651 C.ar      1 UNK         0.0000 
  17646 C(3)       62.4035   48.5430   20.5223 C.ar      1 UNK         0.0000 
  17647 C(4)       61.3334   48.9057   21.3362 C.ar      1 UNK         0.0000 
  17648 C(5)       60.2378   49.5641   20.7791 C.ar      1 UNK         0.0000 
  17649 C(6)       60.2325   49.8769   19.4273 C.ar      1 UNK         0.0000 
  17650 C(7)       62.2056   50.0494   16.3575 C.2       1 UNK         0.0000 
  17651 C(8)       61.7647   50.4820   14.9848 C.3       1 UNK         0.0000 
  17652 H(1)       63.2370   48.5661   18.5448 H         1 UNK         0.0000 
  17653 H(2)       63.2543   48.0131   20.9325 H         1 UNK         0.0000 
  17654 H(3)       59.3947   49.8341   21.4028 H         1 UNK         0.0000 
  17655 H(4)       59.3819   50.3900   18.9958 H         1 UNK         0.0000 
  17656 H(5)       60.5247   48.6664   23.0699 H         1 UNK         0.0000 
  17657 H(6)       60.2889   50.1413   16.9335 H         1 UNK         0.0000 
  17658 H(7)       61.8430   49.6576   14.3248 H         1 UNK         0.0000 
  17659 H(8)       60.7680   50.8392   14.9645 H         1 UNK         0.0000 
  17660 H(9)       62.4452   51.2051   14.6168 H         1 UNK         0.0000 
  17661 O(1)       64.1217   59.9274   19.4793 O.3       1 UNK         0.0000 
  17662 O(2)       62.1238   53.7586   19.3635 O.2       1 UNK         0.0000 
  17663 N(1)       64.3050   54.3630   19.5512 N.am      1 UNK         0.0000 
  17664 C(1)       64.2055   55.7714   19.5000 C.ar      1 UNK         0.0000 
  17665 C(2)       63.1234   56.4596   18.9517 C.ar      1 UNK         0.0000 
  17666 C(3)       63.1163   57.8514   18.9482 C.ar      1 UNK         0.0000 
  17667 C(4)       64.1864   58.5660   19.4805 C.ar      1 UNK         0.0000 
  17668 C(5)       65.2820   57.8781   20.0007 C.ar      1 UNK         0.0000 
  17669 C(6)       65.2873   56.4906   20.0094 C.ar      1 UNK         0.0000 
  17670 C(7)       63.3142   53.4577   19.5044 C.2       1 UNK         0.0000 
  17671 C(8)       63.7551   52.0235   19.6254 C.3       1 UNK         0.0000 
  17672 H(1)       62.2828   55.9171   18.5370 H         1 UNK         0.0000 
  17673 H(2)       62.2655   58.3679   18.5211 H         1 UNK         0.0000 
  17674 H(3)       66.1251   58.4274   20.4010 H         1 UNK         0.0000 
  17675 H(4)       66.1379   55.9571   20.4154 H         1 UNK         0.0000 
  17676 H(5)       64.9951   60.3100   19.6273 H         1 UNK         0.0000 
  17677 H(6)       65.2310   53.9995   19.7204 H         1 UNK         0.0000 
  17678 H(7)       63.6768   51.5604   18.6762 H         1 UNK         0.0000 
  17679 H(8)       64.7518   51.9254   19.9694 H         1 UNK         0.0000 
  17680 H(9)       63.0746   51.5059   20.2502 H         1 UNK         0.0000 
  17681 O(1)       59.7878   53.4606   20.5721 O.3       1 UNK         0.0000 
  17682 O(2)       57.7900   52.2205   26.6161 O.2       1 UNK         0.0000 
  17683 N(1)       59.9711   52.1699   25.9852 N.am      1 UNK         0.0000 
  17684 C(1)       59.8716   52.5288   24.6223 C.ar      1 UNK         0.0000 
  17685 C(2)       58.7895   53.2147   24.0711 C.ar      1 UNK         0.0000 
  17686 C(3)       58.7825   53.5235   22.7140 C.ar      1 UNK         0.0000 
  17687 C(4)       59.8525   53.1608   21.9000 C.ar      1 UNK         0.0000 
  17688 C(5)       60.9481   52.5024   22.4571 C.ar      1 UNK         0.0000 
  17689 C(6)       60.9534   52.1896   23.8089 C.ar      1 UNK         0.0000 
  17690 C(7)       58.9803   52.0171   26.8787 C.2       1 UNK         0.0000 
  17691 C(8)       59.4212   51.5844   28.2514 C.3       1 UNK         0.0000 
  17692 H(1)       57.9490   53.5004   24.6914 H         1 UNK         0.0000 
  17693 H(2)       57.9316   54.0534   22.3037 H         1 UNK         0.0000 
  17694 H(3)       61.7913   52.2323   21.8334 H         1 UNK         0.0000 
  17695 H(4)       61.8040   51.6765   24.2404 H         1 UNK         0.0000 
  17696 H(5)       60.6612   53.4001   20.1663 H         1 UNK         0.0000 
  17697 H(6)       60.8971   51.9252   26.3027 H         1 UNK         0.0000 
  17698 H(7)       59.3429   52.4089   28.9114 H         1 UNK         0.0000 
  17699 H(8)       60.4180   51.2273   28.2717 H         1 UNK         0.0000 
  17700 H(9)       58.7407   50.8613   28.6194 H         1 UNK         0.0000 
  17701 O(1)       58.6550   56.8215   23.7569 O.3       1 UNK         0.0000 
  17702 O(2)       60.6529   62.9902   23.8727 O.2       1 UNK         0.0000 
  17703 N(1)       58.4717   62.3858   23.6850 N.am      1 UNK         0.0000 
  17704 C(1)       58.5712   60.9774   23.7362 C.ar      1 UNK         0.0000 
  17705 C(2)       59.6533   60.2892   24.2845 C.ar      1 UNK         0.0000 
  17706 C(3)       59.6604   58.8974   24.2881 C.ar      1 UNK         0.0000 
  17707 C(4)       58.5903   58.1828   23.7557 C.ar      1 UNK         0.0000 
  17708 C(5)       57.4947   58.8707   23.2355 C.ar      1 UNK         0.0000 
  17709 C(6)       57.4894   60.2582   23.2268 C.ar      1 UNK         0.0000 
  17710 C(7)       59.4625   63.2911   23.7318 C.2       1 UNK         0.0000 
  17711 C(8)       59.0216   64.7253   23.6108 C.3       1 UNK         0.0000 
  17712 H(1)       60.4939   60.8317   24.6992 H         1 UNK         0.0000 
  17713 H(2)       60.5112   58.3809   24.7151 H         1 UNK         0.0000 
  17714 H(3)       56.6516   58.3214   22.8352 H         1 UNK         0.0000 
  17715 H(4)       56.6388   60.7917   22.8209 H         1 UNK         0.0000 
  17716 H(5)       57.7816   56.4389   23.6089 H         1 UNK         0.0000 
  17717 H(6)       57.5457   62.7493   23.5158 H         1 UNK         0.0000 
  17718 H(7)       59.0999   65.1884   24.5600 H         1 UNK         0.0000 
  17719 H(8)       58.0249   64.8234   23.2668 H         1 UNK         0.0000 
  17720 H(9)       59.7021   65.2429   22.9860 H         1 UNK         0.0000 
  17721 O(1)       62.9889   51.8263    8.3393 O.3       1 UNK         0.0000 
  17722 O(2)       64.9868   53.0663    2.2953 O.2       1 UNK         0.0000 
  17723 N(1)       62.8056   53.1170    2.9262 N.am      1 UNK         0.0000 
  17724 C(1)       62.9051   52.7581    4.2891 C.ar      1 UNK         0.0000 
  17725 C(2)       63.9872   52.0722    4.8403 C.ar      1 UNK         0.0000 
  17726 C(3)       63.9942   51.7634    6.1975 C.ar      1 UNK         0.0000 
  17727 C(4)       62.9242   52.1261    7.0114 C.ar      1 UNK         0.0000 
  17728 C(5)       61.8286   52.7845    6.4543 C.ar      1 UNK         0.0000 
  17729 C(6)       61.8233   53.0973    5.1025 C.ar      1 UNK         0.0000 
  17730 C(7)       63.7964   53.2698    2.0327 C.2       1 UNK         0.0000 
  17731 C(8)       63.3555   53.7024    0.6600 C.3       1 UNK         0.0000 
  17732 H(1)       64.8278   51.7865    4.2200 H         1 UNK         0.0000 
  17733 H(2)       64.8451   51.2335    6.6077 H         1 UNK         0.0000 
  17734 H(3)       60.9854   53.0545    7.0780 H         1 UNK         0.0000 
  17735 H(4)       60.9727   53.6104    4.6710 H         1 UNK         0.0000 
  17736 H(5)       62.1155   51.8868    8.7451 H         1 UNK         0.0000 
  17737 H(6)       61.8796   53.3617    2.6087 H         1 UNK         0.0000 
  17738 H(7)       63.4338   52.8780    0.0000 H         1 UNK         0.0000 
  17739 H(8)       62.3587   54.0596    0.6397 H         1 UNK         0.0000 
  17740 H(9)       64.0360   54.4255    0.2920 H         1 UNK         0.0000 
  17741 O(1)       65.7124   63.1478    5.1545 O.3       1 UNK         0.0000 
  17742 O(2)       63.7146   56.9790    5.0387 O.2       1 UNK         0.0000 
  17743 N(1)       65.8958   57.5834    5.2264 N.am      1 UNK         0.0000 
  17744 C(1)       65.7963   58.9918    5.1752 C.ar      1 UNK         0.0000 
  17745 C(2)       64.7142   59.6800    4.6269 C.ar      1 UNK         0.0000 
  17746 C(3)       64.7071   61.0718    4.6234 C.ar      1 UNK         0.0000 
  17747 C(4)       65.7772   61.7864    5.1557 C.ar      1 UNK         0.0000 
  17748 C(5)       66.8728   61.0985    5.6759 C.ar      1 UNK         0.0000 
  17749 C(6)       66.8781   59.7110    5.6846 C.ar      1 UNK         0.0000 
  17750 C(7)       64.9050   56.6781    5.1796 C.2       1 UNK         0.0000 
  17751 C(8)       65.3459   55.2439    5.3006 C.3       1 UNK         0.0000 
  17752 H(1)       63.8736   59.1375    4.2122 H         1 UNK         0.0000 
  17753 H(2)       63.8563   61.5883    4.1963 H         1 UNK         0.0000 
  17754 H(3)       67.7159   61.6478    6.0762 H         1 UNK         0.0000 
  17755 H(4)       67.7287   59.1775    6.0906 H         1 UNK         0.0000 
  17756 H(5)       66.5859   63.5304    5.3025 H         1 UNK         0.0000 
  17757 H(6)       66.8217   57.2199    5.3956 H         1 UNK         0.0000 
  17758 H(7)       65.2676   54.7808    4.3514 H         1 UNK         0.0000 
  17759 H(8)       66.3426   55.1458    5.6446 H         1 UNK         0.0000 
  17760 H(9)       64.6654   54.7263    5.9254 H         1 UNK         0.0000 
  17761 O(1)       62.9693   71.3634    6.2473 O.3       1 UNK         0.0000 
  17762 O(2)       60.9715   70.1233   12.2913 O.2       1 UNK         0.0000 
  17763 N(1)       63.1527   70.0726   11.6604 N.am      1 UNK         0.0000 
  17764 C(1)       63.0532   70.4316   10.2975 C.ar      1 UNK         0.0000 
  17765 C(2)       61.9711   71.1174    9.7463 C.ar      1 UNK         0.0000 
  17766 C(3)       61.9640   71.4262    8.3892 C.ar      1 UNK         0.0000 
  17767 C(4)       63.0340   71.0635    7.5752 C.ar      1 UNK         0.0000 
  17768 C(5)       64.1297   70.4052    8.1323 C.ar      1 UNK         0.0000 
  17769 C(6)       64.1350   70.0923    9.4841 C.ar      1 UNK         0.0000 
  17770 C(7)       62.1619   69.9198   12.5539 C.2       1 UNK         0.0000 
  17771 C(8)       62.6027   69.4872   13.9266 C.3       1 UNK         0.0000 
  17772 H(1)       61.1305   71.4031   10.3666 H         1 UNK         0.0000 
  17773 H(2)       61.1132   71.9561    7.9789 H         1 UNK         0.0000 
  17774 H(3)       64.9728   70.1351    7.5086 H         1 UNK         0.0000 
  17775 H(4)       64.9856   69.5792    9.9156 H         1 UNK         0.0000 
  17776 H(5)       63.8428   71.3028    5.8415 H         1 UNK         0.0000 
  17777 H(6)       64.0786   69.8279   11.9779 H         1 UNK         0.0000 
  17778 H(7)       62.5245   70.3116   14.5866 H         1 UNK         0.0000 
  17779 H(8)       63.5995   69.1300   13.9469 H         1 UNK         0.0000 
  17780 H(9)       61.9223   68.7641   14.2946 H         1 UNK         0.0000 
  17781 O(1)       67.3228   60.0419    9.4321 O.3       1 UNK         0.0000 
  17782 O(2)       69.3206   66.2106    9.5479 O.2       1 UNK         0.0000 
  17783 N(1)       67.1395   65.6062    9.3602 N.am      1 UNK         0.0000 
  17784 C(1)       67.2390   64.1978    9.4114 C.ar      1 UNK         0.0000 
  17785 C(2)       68.3211   63.5096    9.9597 C.ar      1 UNK         0.0000 
  17786 C(3)       68.3281   62.1178    9.9633 C.ar      1 UNK         0.0000 
  17787 C(4)       67.2581   61.4032    9.4309 C.ar      1 UNK         0.0000 
  17788 C(5)       66.1625   62.0911    8.9107 C.ar      1 UNK         0.0000 
  17789 C(6)       66.1572   63.4786    8.9020 C.ar      1 UNK         0.0000 
  17790 C(7)       68.1303   66.5115    9.4070 C.2       1 UNK         0.0000 
  17791 C(8)       67.6894   67.9457    9.2860 C.3       1 UNK         0.0000 
  17792 H(1)       69.1616   64.0521   10.3744 H         1 UNK         0.0000 
  17793 H(2)       69.1790   61.6013   10.3903 H         1 UNK         0.0000 
  17794 H(3)       65.3193   61.5418    8.5104 H         1 UNK         0.0000 
  17795 H(4)       65.3066   64.0121    8.4961 H         1 UNK         0.0000 
  17796 H(5)       66.4494   59.6593    9.2841 H         1 UNK         0.0000 
  17797 H(6)       66.2135   65.9697    9.1910 H         1 UNK         0.0000 
  17798 H(7)       67.7677   68.4088   10.2352 H         1 UNK         0.0000 
  17799 H(8)       66.6926   68.0438    8.9420 H         1 UNK         0.0000 
  17800 H(9)       68.3699   68.4633    8.6612 H         1 UNK         0.0000 
  17801 O(1)       57.5027   72.2396   15.5017 O.3       1 UNK         0.0000 
  17802 O(2)       59.5005   73.4796    9.4577 O.2       1 UNK         0.0000 
  17803 N(1)       57.3194   73.5303   10.0886 N.am      1 UNK         0.0000 
  17804 C(1)       57.4188   73.1714   11.4515 C.ar      1 UNK         0.0000 
  17805 C(2)       58.5010   72.4855   12.0027 C.ar      1 UNK         0.0000 
  17806 C(3)       58.5080   72.1767   13.3599 C.ar      1 UNK         0.0000 
  17807 C(4)       57.4380   72.5394   14.1738 C.ar      1 UNK         0.0000 
  17808 C(5)       56.3424   73.1977   13.6167 C.ar      1 UNK         0.0000 
  17809 C(6)       56.3371   73.5106   12.2649 C.ar      1 UNK         0.0000 
  17810 C(7)       58.3102   73.6831    9.1951 C.2       1 UNK         0.0000 
  17811 C(8)       57.8693   74.1157    7.8224 C.3       1 UNK         0.0000 
  17812 H(1)       59.3415   72.1998   11.3824 H         1 UNK         0.0000 
  17813 H(2)       59.3588   71.6468   13.7701 H         1 UNK         0.0000 
  17814 H(3)       55.4992   73.4678   14.2404 H         1 UNK         0.0000 
  17815 H(4)       55.4865   74.0237   11.8334 H         1 UNK         0.0000 
  17816 H(5)       56.6293   72.3001   15.9075 H         1 UNK         0.0000 
  17817 H(6)       56.3934   73.7750    9.7711 H         1 UNK         0.0000 
  17818 H(7)       57.9476   73.2913    7.1624 H         1 UNK         0.0000 
  17819 H(8)       56.8725   74.4729    7.8021 H         1 UNK         0.0000 
  17820 H(9)       58.5498   74.8388    7.4544 H         1 UNK         0.0000 
  17821 O(1)       58.6354   68.8787   12.3169 O.3       1 UNK         0.0000 
  17822 O(2)       56.6376   62.7099   12.2011 O.2       1 UNK         0.0000 
  17823 N(1)       58.8188   63.3143   12.3888 N.am      1 UNK         0.0000 
  17824 C(1)       58.7193   64.7228   12.3376 C.ar      1 UNK         0.0000 
  17825 C(2)       57.6372   65.4110   11.7893 C.ar      1 UNK         0.0000 
  17826 C(3)       57.6301   66.8028   11.7858 C.ar      1 UNK         0.0000 
  17827 C(4)       58.7002   67.5174   12.3181 C.ar      1 UNK         0.0000 
  17828 C(5)       59.7958   66.8295   12.8383 C.ar      1 UNK         0.0000 
  17829 C(6)       59.8011   65.4419   12.8470 C.ar      1 UNK         0.0000 
  17830 C(7)       57.8280   62.4090   12.3420 C.2       1 UNK         0.0000 
  17831 C(8)       58.2689   60.9749   12.4630 C.3       1 UNK         0.0000 
  17832 H(1)       56.7966   64.8685   11.3746 H         1 UNK         0.0000 
  17833 H(2)       56.7793   67.3193   11.3587 H         1 UNK         0.0000 
  17834 H(3)       60.6389   67.3787   13.2386 H         1 UNK         0.0000 
  17835 H(4)       60.6517   64.9084   13.2530 H         1 UNK         0.0000 
  17836 H(5)       59.5089   69.2613   12.4649 H         1 UNK         0.0000 
  17837 H(6)       59.7447   62.9509   12.5580 H         1 UNK         0.0000 
  17838 H(7)       58.1906   60.5118   11.5138 H         1 UNK         0.0000 
  17839 H(8)       59.2656   60.8768   12.8070 H         1 UNK         0.0000 
  17840 H(9)       57.5884   60.4572   13.0878 H         1 UNK         0.0000 
  17841 O(1)       62.9693   77.0943   13.4097 O.3       1 UNK         0.0000 
  17842 O(2)       60.9715   75.8542   19.4537 O.2       1 UNK         0.0000 
  17843 N(1)       63.1527   75.8036   18.8228 N.am      1 UNK         0.0000 
  17844 C(1)       63.0532   76.1625   17.4599 C.ar      1 UNK         0.0000 
  17845 C(2)       61.9711   76.8484   16.9087 C.ar      1 UNK         0.0000 
  17846 C(3)       61.9640   77.1572   15.5516 C.ar      1 UNK         0.0000 
  17847 C(4)       63.0340   76.7945   14.7376 C.ar      1 UNK         0.0000 
  17848 C(5)       64.1297   76.1361   15.2947 C.ar      1 UNK         0.0000 
  17849 C(6)       64.1350   75.8232   16.6465 C.ar      1 UNK         0.0000 
  17850 C(7)       62.1619   75.6508   19.7163 C.2       1 UNK         0.0000 
  17851 C(8)       62.6027   75.2181   21.0890 C.3       1 UNK         0.0000 
  17852 H(1)       61.1305   77.1341   17.5290 H         1 UNK         0.0000 
  17853 H(2)       61.1132   77.6871   15.1413 H         1 UNK         0.0000 
  17854 H(3)       64.9728   75.8660   14.6710 H         1 UNK         0.0000 
  17855 H(4)       64.9856   75.3102   17.0780 H         1 UNK         0.0000 
  17856 H(5)       63.8428   77.0338   13.0039 H         1 UNK         0.0000 
  17857 H(6)       64.0786   75.5589   19.1403 H         1 UNK         0.0000 
  17858 H(7)       62.5245   76.0426   21.7490 H         1 UNK         0.0000 
  17859 H(8)       63.5995   74.8610   21.1093 H         1 UNK         0.0000 
  17860 H(9)       61.9223   74.4950   21.4570 H         1 UNK         0.0000 
  17861 O(1)       67.3228   65.7728   16.5945 O.3       1 UNK         0.0000 
  17862 O(2)       69.3206   71.9416   16.7103 O.2       1 UNK         0.0000 
  17863 N(1)       67.1395   71.3372   16.5226 N.am      1 UNK         0.0000 
  17864 C(1)       67.2390   69.9288   16.5738 C.ar      1 UNK         0.0000 
  17865 C(2)       68.3211   69.2405   17.1221 C.ar      1 UNK         0.0000 
  17866 C(3)       68.3281   67.8487   17.1257 C.ar      1 UNK         0.0000 
  17867 C(4)       67.2581   67.1341   16.5933 C.ar      1 UNK         0.0000 
  17868 C(5)       66.1625   67.8221   16.0731 C.ar      1 UNK         0.0000 
  17869 C(6)       66.1572   69.2096   16.0644 C.ar      1 UNK         0.0000 
  17870 C(7)       68.1303   72.2425   16.5694 C.2       1 UNK         0.0000 
  17871 C(8)       67.6894   73.6766   16.4484 C.3       1 UNK         0.0000 
  17872 H(1)       69.1616   69.7831   17.5368 H         1 UNK         0.0000 
  17873 H(2)       69.1790   67.3323   17.5527 H         1 UNK         0.0000 
  17874 H(3)       65.3193   67.2728   15.6728 H         1 UNK         0.0000 
  17875 H(4)       65.3066   69.7431   15.6585 H         1 UNK         0.0000 
  17876 H(5)       66.4494   65.3902   16.4465 H         1 UNK         0.0000 
  17877 H(6)       66.2135   71.7007   16.3534 H         1 UNK         0.0000 
  17878 H(7)       67.7677   74.1397   17.3976 H         1 UNK         0.0000 
  17879 H(8)       66.6926   73.7748   16.1044 H         1 UNK         0.0000 
  17880 H(9)       68.3699   74.1943   15.8236 H         1 UNK         0.0000 
  17881 O(1)       62.9889   63.2882   22.6641 O.3       1 UNK         0.0000 
  17882 O(2)       64.9868   64.5283   16.6201 O.2       1 UNK         0.0000 
  17883 N(1)       62.8056   64.5789   17.2510 N.am      1 UNK         0.0000 
  17884 C(1)       62.9051   64.2200   18.6139 C.ar      1 UNK         0.0000 
  17885 C(2)       63.9872   63.5341   19.1651 C.ar      1 UNK         0.0000 
  17886 C(3)       63.9942   63.2253   20.5223 C.ar      1 UNK         0.0000 
  17887 C(4)       62.9242   63.5880   21.3362 C.ar      1 UNK         0.0000 
  17888 C(5)       61.8286   64.2464   20.7791 C.ar      1 UNK         0.0000 
  17889 C(6)       61.8233   64.5593   19.4273 C.ar      1 UNK         0.0000 
  17890 C(7)       63.7964   64.7317   16.3575 C.2       1 UNK         0.0000 
  17891 C(8)       63.3555   65.1644   14.9848 C.3       1 UNK         0.0000 
  17892 H(1)       64.8278   63.2484   18.5448 H         1 UNK         0.0000 
  17893 H(2)       64.8451   62.6954   20.9325 H         1 UNK         0.0000 
  17894 H(3)       60.9854   64.5165   21.4028 H         1 UNK         0.0000 
  17895 H(4)       60.9727   65.0723   18.9958 H         1 UNK         0.0000 
  17896 H(5)       62.1155   63.3487   23.0699 H         1 UNK         0.0000 
  17897 H(6)       61.8796   64.8236   16.9335 H         1 UNK         0.0000 
  17898 H(7)       63.4338   64.3399   14.3248 H         1 UNK         0.0000 
  17899 H(8)       62.3587   65.5215   14.9645 H         1 UNK         0.0000 
  17900 H(9)       64.0360   65.8875   14.6168 H         1 UNK         0.0000 
  17901 O(1)       65.7124   74.6097   19.4793 O.3       1 UNK         0.0000 
  17902 O(2)       63.7146   68.4409   19.3635 O.2       1 UNK         0.0000 
  17903 N(1)       65.8958   69.0453   19.5512 N.am      1 UNK         0.0000 
  17904 C(1)       65.7963   70.4537   19.5000 C.ar      1 UNK         0.0000 
  17905 C(2)       64.7142   71.1420   18.9517 C.ar      1 UNK         0.0000 
  17906 C(3)       64.7071   72.5338   18.9482 C.ar      1 UNK         0.0000 
  17907 C(4)       65.7772   73.2484   19.4805 C.ar      1 UNK         0.0000 
  17908 C(5)       66.8728   72.5605   20.0007 C.ar      1 UNK         0.0000 
  17909 C(6)       66.8781   71.1729   20.0094 C.ar      1 UNK         0.0000 
  17910 C(7)       64.9050   68.1400   19.5044 C.2       1 UNK         0.0000 
  17911 C(8)       65.3459   66.7059   19.6254 C.3       1 UNK         0.0000 
  17912 H(1)       63.8736   70.5994   18.5370 H         1 UNK         0.0000 
  17913 H(2)       63.8563   73.0502   18.5211 H         1 UNK         0.0000 
  17914 H(3)       67.7159   73.1097   20.4010 H         1 UNK         0.0000 
  17915 H(4)       67.7287   70.6394   20.4154 H         1 UNK         0.0000 
  17916 H(5)       66.5859   74.9923   19.6273 H         1 UNK         0.0000 
  17917 H(6)       66.8217   68.6818   19.7204 H         1 UNK         0.0000 
  17918 H(7)       65.2676   66.2428   18.6762 H         1 UNK         0.0000 
  17919 H(8)       66.3426   66.6077   19.9694 H         1 UNK         0.0000 
  17920 H(9)       64.6654   66.1882   20.2502 H         1 UNK         0.0000 
  17921 O(1)       61.3786   68.1430   20.5721 O.3       1 UNK         0.0000 
  17922 O(2)       59.3807   66.9029   26.6161 O.2       1 UNK         0.0000 
  17923 N(1)       61.5619   66.8522   25.9852 N.am      1 UNK         0.0000 
  17924 C(1)       61.4624   67.2112   24.6223 C.ar      1 UNK         0.0000 
  17925 C(2)       60.3803   67.8970   24.0711 C.ar      1 UNK         0.0000 
  17926 C(3)       60.3732   68.2058   22.7140 C.ar      1 UNK         0.0000 
  17927 C(4)       61.4433   67.8431   21.9000 C.ar      1 UNK         0.0000 
  17928 C(5)       62.5389   67.1848   22.4571 C.ar      1 UNK         0.0000 
  17929 C(6)       62.5442   66.8719   23.8089 C.ar      1 UNK         0.0000 
  17930 C(7)       60.5711   66.6994   26.8787 C.2       1 UNK         0.0000 
  17931 C(8)       61.0120   66.2668   28.2514 C.3       1 UNK         0.0000 
  17932 H(1)       59.5397   68.1827   24.6914 H         1 UNK         0.0000 
  17933 H(2)       59.5224   68.7357   22.3037 H         1 UNK         0.0000 
  17934 H(3)       63.3820   66.9147   21.8334 H         1 UNK         0.0000 
  17935 H(4)       63.3948   66.3588   24.2404 H         1 UNK         0.0000 
  17936 H(5)       62.2520   68.0824   20.1663 H         1 UNK         0.0000 
  17937 H(6)       62.4878   66.6075   26.3027 H         1 UNK         0.0000 
  17938 H(7)       60.9337   67.0912   28.9114 H         1 UNK         0.0000 
  17939 H(8)       62.0087   65.9096   28.2717 H         1 UNK         0.0000 
  17940 H(9)       60.3315   65.5437   28.6194 H         1 UNK         0.0000 
  17941 O(1)       60.2458   71.5038   23.7569 O.3       1 UNK         0.0000 
  17942 O(2)       62.2436   77.6726   23.8727 O.2       1 UNK         0.0000 
  17943 N(1)       60.0625   77.0682   23.6850 N.am      1 UNK         0.0000 
  17944 C(1)       60.1620   75.6597   23.7362 C.ar      1 UNK         0.0000 
  17945 C(2)       61.2441   74.9715   24.2845 C.ar      1 UNK         0.0000 
  17946 C(3)       61.2511   73.5797   24.2881 C.ar      1 UNK         0.0000 
  17947 C(4)       60.1811   72.8651   23.7557 C.ar      1 UNK         0.0000 
  17948 C(5)       59.0855   73.5530   23.2355 C.ar      1 UNK         0.0000 
  17949 C(6)       59.0802   74.9406   23.2268 C.ar      1 UNK         0.0000 
  17950 C(7)       61.0533   77.9735   23.7318 C.2       1 UNK         0.0000 
  17951 C(8)       60.6124   79.4076   23.6108 C.3       1 UNK         0.0000 
  17952 H(1)       62.0846   75.5140   24.6992 H         1 UNK         0.0000 
  17953 H(2)       62.1020   73.0632   24.7151 H         1 UNK         0.0000 
  17954 H(3)       58.2423   73.0038   22.8352 H         1 UNK         0.0000 
  17955 H(4)       58.2296   75.4741   22.8209 H         1 UNK         0.0000 
  17956 H(5)       59.3724   71.1212   23.6089 H         1 UNK         0.0000 
  17957 H(6)       59.1365   77.4316   23.5158 H         1 UNK         0.0000 
  17958 H(7)       60.6907   79.8707   24.5600 H         1 UNK         0.0000 
  17959 H(8)       59.6156   79.5057   23.2668 H         1 UNK         0.0000 
  17960 H(9)       61.2929   79.9253   22.9860 H         1 UNK         0.0000 
  17961 O(1)       64.5797   66.5086    8.3393 O.3       1 UNK         0.0000 
  17962 O(2)       66.5775   67.7487    2.2953 O.2       1 UNK         0.0000 
  17963 N(1)       64.3964   67.7993    2.9262 N.am      1 UNK         0.0000 
  17964 C(1)       64.4958   67.4404    4.2891 C.ar      1 UNK         0.0000 
  17965 C(2)       65.5780   66.7545    4.8403 C.ar      1 UNK         0.0000 
  17966 C(3)       65.5850   66.4457    6.1975 C.ar      1 UNK         0.0000 
  17967 C(4)       64.5150   66.8084    7.0114 C.ar      1 UNK         0.0000 
  17968 C(5)       63.4194   67.4668    6.4543 C.ar      1 UNK         0.0000 
  17969 C(6)       63.4141   67.7797    5.1025 C.ar      1 UNK         0.0000 
  17970 C(7)       65.3872   67.9521    2.0327 C.2       1 UNK         0.0000 
  17971 C(8)       64.9463   68.3848    0.6600 C.3       1 UNK         0.0000 
  17972 H(1)       66.4185   66.4688    4.2200 H         1 UNK         0.0000 
  17973 H(2)       66.4358   65.9158    6.6077 H         1 UNK         0.0000 
  17974 H(3)       62.5762   67.7369    7.0780 H         1 UNK         0.0000 
  17975 H(4)       62.5635   68.2927    4.6710 H         1 UNK         0.0000 
  17976 H(5)       63.7063   66.5691    8.7451 H         1 UNK         0.0000 
  17977 H(6)       63.4704   68.0440    2.6087 H         1 UNK         0.0000 
  17978 H(7)       65.0246   67.5603    0.0000 H         1 UNK         0.0000 
  17979 H(8)       63.9495   68.7419    0.6397 H         1 UNK         0.0000 
  17980 H(9)       65.6268   69.1079    0.2920 H         1 UNK         0.0000 
  17981 O(1)       67.3032   77.8301    5.1545 O.3       1 UNK         0.0000 
  17982 O(2)       65.3054   71.6613    5.0387 O.2       1 UNK         0.0000 
  17983 N(1)       67.4866   72.2657    5.2264 N.am      1 UNK         0.0000 
  17984 C(1)       67.3871   73.6741    5.1752 C.ar      1 UNK         0.0000 
  17985 C(2)       66.3049   74.3624    4.6269 C.ar      1 UNK         0.0000 
  17986 C(3)       66.2979   75.7542    4.6234 C.ar      1 UNK         0.0000 
  17987 C(4)       67.3679   76.4688    5.1557 C.ar      1 UNK         0.0000 
  17988 C(5)       68.4635   75.7809    5.6759 C.ar      1 UNK         0.0000 
  17989 C(6)       68.4689   74.3933    5.6846 C.ar      1 UNK         0.0000 
  17990 C(7)       66.4958   71.3604    5.1796 C.2       1 UNK         0.0000 
  17991 C(8)       66.9366   69.9263    5.3006 C.3       1 UNK         0.0000 
  17992 H(1)       65.4644   73.8198    4.2122 H         1 UNK         0.0000 
  17993 H(2)       65.4471   76.2706    4.1963 H         1 UNK         0.0000 
  17994 H(3)       69.3067   76.3301    6.0762 H         1 UNK         0.0000 
  17995 H(4)       69.3195   73.8598    6.0906 H         1 UNK         0.0000 
  17996 H(5)       68.1767   78.2127    5.3025 H         1 UNK         0.0000 
  17997 H(6)       68.4125   71.9022    5.3956 H         1 UNK         0.0000 
  17998 H(7)       66.8584   69.4632    4.3514 H         1 UNK         0.0000 
  17999 H(8)       67.9334   69.8281    5.6446 H         1 UNK         0.0000 
  18000 H(9)       66.2562   69.4086    5.9254 H         1 UNK         0.0000 
  18001 O(1)       64.5601   86.0457    6.2473 O.3       1 UNK         0.0000 
  18002 O(2)       62.5623   84.8056   12.2913 O.2       1 UNK         0.0000 
  18003 N(1)       64.7434   84.7550   11.6604 N.am      1 UNK         0.0000 
  18004 C(1)       64.6440   85.1139   10.2975 C.ar      1 UNK         0.0000 
  18005 C(2)       63.5618   85.7998    9.7463 C.ar      1 UNK         0.0000 
  18006 C(3)       63.5548   86.1085    8.3892 C.ar      1 UNK         0.0000 
  18007 C(4)       64.6248   85.7459    7.5752 C.ar      1 UNK         0.0000 
  18008 C(5)       65.7204   85.0875    8.1323 C.ar      1 UNK         0.0000 
  18009 C(6)       65.7257   84.7746    9.4841 C.ar      1 UNK         0.0000 
  18010 C(7)       63.7527   84.6021   12.5539 C.2       1 UNK         0.0000 
  18011 C(8)       64.1935   84.1695   13.9266 C.3       1 UNK         0.0000 
  18012 H(1)       62.7213   86.0854   10.3666 H         1 UNK         0.0000 
  18013 H(2)       62.7040   86.6384    7.9789 H         1 UNK         0.0000 
  18014 H(3)       66.5636   84.8174    7.5086 H         1 UNK         0.0000 
  18015 H(4)       66.5764   84.2615    9.9156 H         1 UNK         0.0000 
  18016 H(5)       65.4336   85.9852    5.8415 H         1 UNK         0.0000 
  18017 H(6)       65.6694   84.5102   11.9779 H         1 UNK         0.0000 
  18018 H(7)       64.1153   84.9940   14.5866 H         1 UNK         0.0000 
  18019 H(8)       65.1903   83.8124   13.9469 H         1 UNK         0.0000 
  18020 H(9)       63.5130   83.4464   14.2946 H         1 UNK         0.0000 
  18021 O(1)       68.9136   74.7242    9.4321 O.3       1 UNK         0.0000 
  18022 O(2)       70.9114   80.8930    9.5479 O.2       1 UNK         0.0000 
  18023 N(1)       68.7303   80.2886    9.3602 N.am      1 UNK         0.0000 
  18024 C(1)       68.8297   78.8801    9.4114 C.ar      1 UNK         0.0000 
  18025 C(2)       69.9119   78.1919    9.9597 C.ar      1 UNK         0.0000 
  18026 C(3)       69.9189   76.8001    9.9633 C.ar      1 UNK         0.0000 
  18027 C(4)       68.8489   76.0855    9.4309 C.ar      1 UNK         0.0000 
  18028 C(5)       67.7533   76.7734    8.9107 C.ar      1 UNK         0.0000 
  18029 C(6)       67.7480   78.1610    8.9020 C.ar      1 UNK         0.0000 
  18030 C(7)       69.7211   81.1939    9.4070 C.2       1 UNK         0.0000 
  18031 C(8)       69.2802   82.6280    9.2860 C.3       1 UNK         0.0000 
  18032 H(1)       70.7524   78.7344   10.3744 H         1 UNK         0.0000 
  18033 H(2)       70.7697   76.2836   10.3903 H         1 UNK         0.0000 
  18034 H(3)       66.9101   76.2242    8.5104 H         1 UNK         0.0000 
  18035 H(4)       66.8974   78.6945    8.4961 H         1 UNK         0.0000 
  18036 H(5)       68.0402   74.3416    9.2841 H         1 UNK         0.0000 
  18037 H(6)       67.8043   80.6520    9.1910 H         1 UNK         0.0000 
  18038 H(7)       69.3585   83.0911   10.2352 H         1 UNK         0.0000 
  18039 H(8)       68.2834   82.7261    8.9420 H         1 UNK         0.0000 
  18040 H(9)       69.9607   83.1457    8.6612 H         1 UNK         0.0000 
  18041 O(1)       59.0935   86.9219   15.5017 O.3       1 UNK         0.0000 
  18042 O(2)       61.0913   88.1620    9.4577 O.2       1 UNK         0.0000 
  18043 N(1)       58.9102   88.2126   10.0886 N.am      1 UNK         0.0000 
  18044 C(1)       59.0096   87.8537   11.4515 C.ar      1 UNK         0.0000 
  18045 C(2)       60.0918   87.1678   12.0027 C.ar      1 UNK         0.0000 
  18046 C(3)       60.0988   86.8590   13.3599 C.ar      1 UNK         0.0000 
  18047 C(4)       59.0288   87.2217   14.1738 C.ar      1 UNK         0.0000 
  18048 C(5)       57.9332   87.8801   13.6167 C.ar      1 UNK         0.0000 
  18049 C(6)       57.9279   88.1930   12.2649 C.ar      1 UNK         0.0000 
  18050 C(7)       59.9010   88.3654    9.1951 C.2       1 UNK         0.0000 
  18051 C(8)       59.4601   88.7981    7.8224 C.3       1 UNK         0.0000 
  18052 H(1)       60.9323   86.8821   11.3824 H         1 UNK         0.0000 
  18053 H(2)       60.9496   86.3291   13.7701 H         1 UNK         0.0000 
  18054 H(3)       57.0900   88.1502   14.2404 H         1 UNK         0.0000 
  18055 H(4)       57.0773   88.7060   11.8334 H         1 UNK         0.0000 
  18056 H(5)       58.2201   86.9824   15.9075 H         1 UNK         0.0000 
  18057 H(6)       57.9842   88.4573    9.7711 H         1 UNK         0.0000 
  18058 H(7)       59.5384   87.9736    7.1624 H         1 UNK         0.0000 
  18059 H(8)       58.4633   89.1552    7.8021 H         1 UNK         0.0000 
  18060 H(9)       60.1406   89.5212    7.4544 H         1 UNK         0.0000 
  18061 O(1)       60.2262   83.5611   12.3169 O.3       1 UNK         0.0000 
  18062 O(2)       58.2284   77.3923   12.2011 O.2       1 UNK         0.0000 
  18063 N(1)       60.4096   77.9967   12.3888 N.am      1 UNK         0.0000 
  18064 C(1)       60.3101   79.4051   12.3376 C.ar      1 UNK         0.0000 
  18065 C(2)       59.2279   80.0933   11.7893 C.ar      1 UNK         0.0000 
  18066 C(3)       59.2209   81.4851   11.7858 C.ar      1 UNK         0.0000 
  18067 C(4)       60.2909   82.1997   12.3181 C.ar      1 UNK         0.0000 
  18068 C(5)       61.3865   81.5118   12.8383 C.ar      1 UNK         0.0000 
  18069 C(6)       61.3919   80.1243   12.8470 C.ar      1 UNK         0.0000 
  18070 C(7)       59.4188   77.0914   12.3420 C.2       1 UNK         0.0000 
  18071 C(8)       59.8596   75.6572   12.4630 C.3       1 UNK         0.0000 
  18072 H(1)       58.3874   79.5508   11.3746 H         1 UNK         0.0000 
  18073 H(2)       58.3701   82.0016   11.3587 H         1 UNK         0.0000 
  18074 H(3)       62.2297   82.0611   13.2386 H         1 UNK         0.0000 
  18075 H(4)       62.2425   79.5908   13.2530 H         1 UNK         0.0000 
  18076 H(5)       61.0997   83.9437   12.4649 H         1 UNK         0.0000 
  18077 H(6)       61.3355   77.6332   12.5580 H         1 UNK         0.0000 
  18078 H(7)       59.7814   75.1941   11.5138 H         1 UNK         0.0000 
  18079 H(8)       60.8564   75.5591   12.8070 H         1 UNK         0.0000 
  18080 H(9)       59.1792   75.1396   13.0878 H         1 UNK         0.0000 
  18081 O(1)       64.5601   91.7766   13.4097 O.3       1 UNK         0.0000 
  18082 O(2)       62.5623   90.5366   19.4537 O.2       1 UNK         0.0000 
  18083 N(1)       64.7434   90.4859   18.8228 N.am      1 UNK         0.0000 
  18084 C(1)       64.6440   90.8448   17.4599 C.ar      1 UNK         0.0000 
  18085 C(2)       63.5618   91.5307   16.9087 C.ar      1 UNK         0.0000 
  18086 C(3)       63.5548   91.8395   15.5516 C.ar      1 UNK         0.0000 
  18087 C(4)       64.6248   91.4768   14.7376 C.ar      1 UNK         0.0000 
  18088 C(5)       65.7204   90.8185   15.2947 C.ar      1 UNK         0.0000 
  18089 C(6)       65.7257   90.5056   16.6465 C.ar      1 UNK         0.0000 
  18090 C(7)       63.7527   90.3331   19.7163 C.2       1 UNK         0.0000 
  18091 C(8)       64.1935   89.9005   21.0890 C.3       1 UNK         0.0000 
  18092 H(1)       62.7213   91.8164   17.5290 H         1 UNK         0.0000 
  18093 H(2)       62.7040   92.3694   15.1413 H         1 UNK         0.0000 
  18094 H(3)       66.5636   90.5484   14.6710 H         1 UNK         0.0000 
  18095 H(4)       66.5764   89.9925   17.0780 H         1 UNK         0.0000 
  18096 H(5)       65.4336   91.7161   13.0039 H         1 UNK         0.0000 
  18097 H(6)       65.6694   90.2412   19.1403 H         1 UNK         0.0000 
  18098 H(7)       64.1153   90.7249   21.7490 H         1 UNK         0.0000 
  18099 H(8)       65.1903   89.5433   21.1093 H         1 UNK         0.0000 
  18100 H(9)       63.5130   89.1774   21.4570 H         1 UNK         0.0000 
  18101 O(1)       68.9136   80.4552   16.5945 O.3       1 UNK         0.0000 
  18102 O(2)       70.9114   86.6239   16.7103 O.2       1 UNK         0.0000 
  18103 N(1)       68.7303   86.0195   16.5226 N.am      1 UNK         0.0000 
  18104 C(1)       68.8297   84.6111   16.5738 C.ar      1 UNK         0.0000 
  18105 C(2)       69.9119   83.9229   17.1221 C.ar      1 UNK         0.0000 
  18106 C(3)       69.9189   82.5311   17.1257 C.ar      1 UNK         0.0000 
  18107 C(4)       68.8489   81.8165   16.5933 C.ar      1 UNK         0.0000 
  18108 C(5)       67.7533   82.5044   16.0731 C.ar      1 UNK         0.0000 
  18109 C(6)       67.7480   83.8919   16.0644 C.ar      1 UNK         0.0000 
  18110 C(7)       69.7211   86.9248   16.5694 C.2       1 UNK         0.0000 
  18111 C(8)       69.2802   88.3590   16.4484 C.3       1 UNK         0.0000 
  18112 H(1)       70.7524   84.4654   17.5368 H         1 UNK         0.0000 
  18113 H(2)       70.7697   82.0146   17.5527 H         1 UNK         0.0000 
  18114 H(3)       66.9101   81.9551   15.6728 H         1 UNK         0.0000 
  18115 H(4)       66.8974   84.4254   15.6585 H         1 UNK         0.0000 
  18116 H(5)       68.0402   80.0725   16.4465 H         1 UNK         0.0000 
  18117 H(6)       67.8043   86.3830   16.3534 H         1 UNK         0.0000 
  18118 H(7)       69.3585   88.8221   17.3976 H         1 UNK         0.0000 
  18119 H(8)       68.2834   88.4571   16.1044 H         1 UNK         0.0000 
  18120 H(9)       69.9607   88.8766   15.8236 H         1 UNK         0.0000 
  18121 O(1)       64.5797   77.9705   22.6641 O.3       1 UNK         0.0000 
  18122 O(2)       66.5775   79.2106   16.6201 O.2       1 UNK         0.0000 
  18123 N(1)       64.3964   79.2612   17.2510 N.am      1 UNK         0.0000 
  18124 C(1)       64.4958   78.9023   18.6139 C.ar      1 UNK         0.0000 
  18125 C(2)       65.5780   78.2164   19.1651 C.ar      1 UNK         0.0000 
  18126 C(3)       65.5850   77.9077   20.5223 C.ar      1 UNK         0.0000 
  18127 C(4)       64.5150   78.2703   21.3362 C.ar      1 UNK         0.0000 
  18128 C(5)       63.4194   78.9287   20.7791 C.ar      1 UNK         0.0000 
  18129 C(6)       63.4141   79.2416   19.4273 C.ar      1 UNK         0.0000 
  18130 C(7)       65.3872   79.4141   16.3575 C.2       1 UNK         0.0000 
  18131 C(8)       64.9463   79.8467   14.9848 C.3       1 UNK         0.0000 
  18132 H(1)       66.4185   77.9308   18.5448 H         1 UNK         0.0000 
  18133 H(2)       66.4358   77.3778   20.9325 H         1 UNK         0.0000 
  18134 H(3)       62.5762   79.1988   21.4028 H         1 UNK         0.0000 
  18135 H(4)       62.5635   79.7547   18.9958 H         1 UNK         0.0000 
  18136 H(5)       63.7063   78.0310   23.0699 H         1 UNK         0.0000 
  18137 H(6)       63.4704   79.5060   16.9335 H         1 UNK         0.0000 
  18138 H(7)       65.0246   79.0222   14.3248 H         1 UNK         0.0000 
  18139 H(8)       63.9495   80.2038   14.9645 H         1 UNK         0.0000 
  18140 H(9)       65.6268   80.5698   14.6168 H         1 UNK         0.0000 
  18141 O(1)       67.3032   89.2920   19.4793 O.3       1 UNK         0.0000 
  18142 O(2)       65.3054   83.1232   19.3635 O.2       1 UNK         0.0000 
  18143 N(1)       67.4866   83.7276   19.5512 N.am      1 UNK         0.0000 
  18144 C(1)       67.3871   85.1361   19.5000 C.ar      1 UNK         0.0000 
  18145 C(2)       66.3049   85.8243   18.9517 C.ar      1 UNK         0.0000 
  18146 C(3)       66.2979   87.2161   18.9482 C.ar      1 UNK         0.0000 
  18147 C(4)       67.3679   87.9307   19.4805 C.ar      1 UNK         0.0000 
  18148 C(5)       68.4635   87.2428   20.0007 C.ar      1 UNK         0.0000 
  18149 C(6)       68.4689   85.8552   20.0094 C.ar      1 UNK         0.0000 
  18150 C(7)       66.4958   82.8223   19.5044 C.2       1 UNK         0.0000 
  18151 C(8)       66.9366   81.3882   19.6254 C.3       1 UNK         0.0000 
  18152 H(1)       65.4644   85.2818   18.5370 H         1 UNK         0.0000 
  18153 H(2)       65.4471   87.7326   18.5211 H         1 UNK         0.0000 
  18154 H(3)       69.3067   87.7920   20.4010 H         1 UNK         0.0000 
  18155 H(4)       69.3195   85.3217   20.4154 H         1 UNK         0.0000 
  18156 H(5)       68.1767   89.6746   19.6273 H         1 UNK         0.0000 
  18157 H(6)       68.4125   83.3642   19.7204 H         1 UNK         0.0000 
  18158 H(7)       66.8584   80.9251   18.6762 H         1 UNK         0.0000 
  18159 H(8)       67.9334   81.2901   19.9694 H         1 UNK         0.0000 
  18160 H(9)       66.2562   80.8705   20.2502 H         1 UNK         0.0000 
  18161 O(1)       62.9693   82.8253   20.5721 O.3       1 UNK         0.0000 
  18162 O(2)       60.9715   81.5852   26.6161 O.2       1 UNK         0.0000 
  18163 N(1)       63.1527   81.5346   25.9852 N.am      1 UNK         0.0000 
  18164 C(1)       63.0532   81.8935   24.6223 C.ar      1 UNK         0.0000 
  18165 C(2)       61.9711   82.5794   24.0711 C.ar      1 UNK         0.0000 
  18166 C(3)       61.9640   82.8881   22.7140 C.ar      1 UNK         0.0000 
  18167 C(4)       63.0340   82.5255   21.9000 C.ar      1 UNK         0.0000 
  18168 C(5)       64.1297   81.8671   22.4571 C.ar      1 UNK         0.0000 
  18169 C(6)       64.1350   81.5542   23.8089 C.ar      1 UNK         0.0000 
  18170 C(7)       62.1619   81.3817   26.8787 C.2       1 UNK         0.0000 
  18171 C(8)       62.6027   80.9491   28.2514 C.3       1 UNK         0.0000 
  18172 H(1)       61.1305   82.8650   24.6914 H         1 UNK         0.0000 
  18173 H(2)       61.1132   83.4180   22.3037 H         1 UNK         0.0000 
  18174 H(3)       64.9728   81.5970   21.8334 H         1 UNK         0.0000 
  18175 H(4)       64.9856   81.0412   24.2404 H         1 UNK         0.0000 
  18176 H(5)       63.8428   82.7648   20.1663 H         1 UNK         0.0000 
  18177 H(6)       64.0786   81.2898   26.3027 H         1 UNK         0.0000 
  18178 H(7)       62.5245   81.7736   28.9114 H         1 UNK         0.0000 
  18179 H(8)       63.5995   80.5920   28.2717 H         1 UNK         0.0000 
  18180 H(9)       61.9223   80.2260   28.6194 H         1 UNK         0.0000 
  18181 O(1)       61.8366   86.1861   23.7569 O.3       1 UNK         0.0000 
  18182 O(2)       63.8344   92.3549   23.8727 O.2       1 UNK         0.0000 
  18183 N(1)       61.6533   91.7505   23.6850 N.am      1 UNK         0.0000 
  18184 C(1)       61.7527   90.3421   23.7362 C.ar      1 UNK         0.0000 
  18185 C(2)       62.8349   89.6538   24.2845 C.ar      1 UNK         0.0000 
  18186 C(3)       62.8419   88.2620   24.2881 C.ar      1 UNK         0.0000 
  18187 C(4)       61.7719   87.5474   23.7557 C.ar      1 UNK         0.0000 
  18188 C(5)       60.6763   88.2353   23.2355 C.ar      1 UNK         0.0000 
  18189 C(6)       60.6710   89.6229   23.2268 C.ar      1 UNK         0.0000 
  18190 C(7)       62.6441   92.6558   23.7318 C.2       1 UNK         0.0000 
  18191 C(8)       62.2032   94.0899   23.6108 C.3       1 UNK         0.0000 
  18192 H(1)       63.6754   90.1964   24.6992 H         1 UNK         0.0000 
  18193 H(2)       63.6927   87.7456   24.7151 H         1 UNK         0.0000 
  18194 H(3)       59.8331   87.6861   22.8352 H         1 UNK         0.0000 
  18195 H(4)       59.8204   90.1564   22.8209 H         1 UNK         0.0000 
  18196 H(5)       60.9632   85.8035   23.6089 H         1 UNK         0.0000 
  18197 H(6)       60.7273   92.1140   23.5158 H         1 UNK         0.0000 
  18198 H(7)       62.2815   94.5530   24.5600 H         1 UNK         0.0000 
  18199 H(8)       61.2064   94.1881   23.2668 H         1 UNK         0.0000 
  18200 H(9)       62.8837   94.6076   22.9860 H         1 UNK         0.0000 
  18201 O(1)       66.1705   81.1909    8.3393 O.3       1 UNK         0.0000 
  18202 O(2)       68.1683   82.4310    2.2953 O.2       1 UNK         0.0000 
  18203 N(1)       65.9872   82.4816    2.9262 N.am      1 UNK         0.0000 
  18204 C(1)       66.0866   82.1227    4.2891 C.ar      1 UNK         0.0000 
  18205 C(2)       67.1688   81.4368    4.8403 C.ar      1 UNK         0.0000 
  18206 C(3)       67.1758   81.1281    6.1975 C.ar      1 UNK         0.0000 
  18207 C(4)       66.1058   81.4907    7.0114 C.ar      1 UNK         0.0000 
  18208 C(5)       65.0102   82.1491    6.4543 C.ar      1 UNK         0.0000 
  18209 C(6)       65.0049   82.4620    5.1025 C.ar      1 UNK         0.0000 
  18210 C(7)       66.9780   82.6345    2.0327 C.2       1 UNK         0.0000 
  18211 C(8)       66.5371   83.0671    0.6600 C.3       1 UNK         0.0000 
  18212 H(1)       68.0093   81.1512    4.2200 H         1 UNK         0.0000 
  18213 H(2)       68.0266   80.5982    6.6077 H         1 UNK         0.0000 
  18214 H(3)       64.1670   82.4192    7.0780 H         1 UNK         0.0000 
  18215 H(4)       64.1543   82.9751    4.6710 H         1 UNK         0.0000 
  18216 H(5)       65.2971   81.2514    8.7451 H         1 UNK         0.0000 
  18217 H(6)       65.0612   82.7264    2.6087 H         1 UNK         0.0000 
  18218 H(7)       66.6154   82.2426    0.0000 H         1 UNK         0.0000 
  18219 H(8)       65.5403   83.4242    0.6397 H         1 UNK         0.0000 
  18220 H(9)       67.2176   83.7902    0.2920 H         1 UNK         0.0000 
  18221 O(1)       68.8940   92.5124    5.1545 O.3       1 UNK         0.0000 
  18222 O(2)       66.8962   86.3436    5.0387 O.2       1 UNK         0.0000 
  18223 N(1)       69.0773   86.9480    5.2264 N.am      1 UNK         0.0000 
  18224 C(1)       68.9779   88.3565    5.1752 C.ar      1 UNK         0.0000 
  18225 C(2)       67.8957   89.0447    4.6269 C.ar      1 UNK         0.0000 
  18226 C(3)       67.8887   90.4365    4.6234 C.ar      1 UNK         0.0000 
  18227 C(4)       68.9587   91.1511    5.1557 C.ar      1 UNK         0.0000 
  18228 C(5)       70.0543   90.4632    5.6759 C.ar      1 UNK         0.0000 
  18229 C(6)       70.0596   89.0756    5.6846 C.ar      1 UNK         0.0000 
  18230 C(7)       68.0866   86.0427    5.1796 C.2       1 UNK         0.0000 
  18231 C(8)       68.5274   84.6086    5.3006 C.3       1 UNK         0.0000 
  18232 H(1)       67.0552   88.5022    4.2122 H         1 UNK         0.0000 
  18233 H(2)       67.0379   90.9530    4.1963 H         1 UNK         0.0000 
  18234 H(3)       70.8975   91.0124    6.0762 H         1 UNK         0.0000 
  18235 H(4)       70.9103   88.5421    6.0906 H         1 UNK         0.0000 
  18236 H(5)       69.7674   92.8950    5.3025 H         1 UNK         0.0000 
  18237 H(6)       70.0033   86.5846    5.3956 H         1 UNK         0.0000 
  18238 H(7)       68.4492   84.1455    4.3514 H         1 UNK         0.0000 
  18239 H(8)       69.5242   84.5105    5.6446 H         1 UNK         0.0000 
  18240 H(9)       67.8469   84.0909    5.9254 H         1 UNK         0.0000 
  18241 O(1)       66.1509  100.7280    6.2473 O.3       1 UNK         0.0000 
  18242 O(2)       64.1531   99.4879   12.2913 O.2       1 UNK         0.0000 
  18243 N(1)       66.3342   99.4373   11.6604 N.am      1 UNK         0.0000 
  18244 C(1)       66.2348   99.7962   10.2975 C.ar      1 UNK         0.0000 
  18245 C(2)       65.1526  100.4821    9.7463 C.ar      1 UNK         0.0000 
  18246 C(3)       65.1456  100.7909    8.3892 C.ar      1 UNK         0.0000 
  18247 C(4)       66.2156  100.4282    7.5752 C.ar      1 UNK         0.0000 
  18248 C(5)       67.3112   99.7698    8.1323 C.ar      1 UNK         0.0000 
  18249 C(6)       67.3165   99.4569    9.4841 C.ar      1 UNK         0.0000 
  18250 C(7)       65.3435   99.2845   12.5539 C.2       1 UNK         0.0000 
  18251 C(8)       65.7843   98.8518   13.9266 C.3       1 UNK         0.0000 
  18252 H(1)       64.3121  100.7678   10.3666 H         1 UNK         0.0000 
  18253 H(2)       64.2948  101.3208    7.9789 H         1 UNK         0.0000 
  18254 H(3)       68.1544   99.4997    7.5086 H         1 UNK         0.0000 
  18255 H(4)       68.1671   98.9439    9.9156 H         1 UNK         0.0000 
  18256 H(5)       67.0243  100.6675    5.8415 H         1 UNK         0.0000 
  18257 H(6)       67.2602   99.1926   11.9779 H         1 UNK         0.0000 
  18258 H(7)       65.7060   99.6763   14.5866 H         1 UNK         0.0000 
  18259 H(8)       66.7811   98.4947   13.9469 H         1 UNK         0.0000 
  18260 H(9)       65.1038   98.1287   14.2946 H         1 UNK         0.0000 
  18261 O(1)       70.5044   89.4065    9.4321 O.3       1 UNK         0.0000 
  18262 O(2)       72.5022   95.5753    9.5479 O.2       1 UNK         0.0000 
  18263 N(1)       70.3211   94.9709    9.3602 N.am      1 UNK         0.0000 
  18264 C(1)       70.4205   93.5625    9.4114 C.ar      1 UNK         0.0000 
  18265 C(2)       71.5027   92.8742    9.9597 C.ar      1 UNK         0.0000 
  18266 C(3)       71.5097   91.4824    9.9633 C.ar      1 UNK         0.0000 
  18267 C(4)       70.4397   90.7678    9.4309 C.ar      1 UNK         0.0000 
  18268 C(5)       69.3441   91.4557    8.9107 C.ar      1 UNK         0.0000 
  18269 C(6)       69.3388   92.8433    8.9020 C.ar      1 UNK         0.0000 
  18270 C(7)       71.3118   95.8762    9.4070 C.2       1 UNK         0.0000 
  18271 C(8)       70.8710   97.3103    9.2860 C.3       1 UNK         0.0000 
  18272 H(1)       72.3432   93.4168   10.3744 H         1 UNK         0.0000 
  18273 H(2)       72.3605   90.9660   10.3903 H         1 UNK         0.0000 
  18274 H(3)       68.5009   90.9065    8.5104 H         1 UNK         0.0000 
  18275 H(4)       68.4882   93.3768    8.4961 H         1 UNK         0.0000 
  18276 H(5)       69.6310   89.0239    9.2841 H         1 UNK         0.0000 
  18277 H(6)       69.3951   95.3344    9.1910 H         1 UNK         0.0000 
  18278 H(7)       70.9492   97.7734   10.2352 H         1 UNK         0.0000 
  18279 H(8)       69.8742   97.4085    8.9420 H         1 UNK         0.0000 
  18280 H(9)       71.5515   97.8280    8.6612 H         1 UNK         0.0000 
  18281 O(1)       60.6843  101.6042   15.5017 O.3       1 UNK         0.0000 
  18282 O(2)       62.6821  102.8443    9.4577 O.2       1 UNK         0.0000 
  18283 N(1)       60.5010  102.8949   10.0886 N.am      1 UNK         0.0000 
  18284 C(1)       60.6004  102.5360   11.4515 C.ar      1 UNK         0.0000 
  18285 C(2)       61.6826  101.8501   12.0027 C.ar      1 UNK         0.0000 
  18286 C(3)       61.6896  101.5414   13.3599 C.ar      1 UNK         0.0000 
  18287 C(4)       60.6196  101.9040   14.1738 C.ar      1 UNK         0.0000 
  18288 C(5)       59.5240  102.5624   13.6167 C.ar      1 UNK         0.0000 
  18289 C(6)       59.5187  102.8753   12.2649 C.ar      1 UNK         0.0000 
  18290 C(7)       61.4917  103.0478    9.1951 C.2       1 UNK         0.0000 
  18291 C(8)       61.0509  103.4804    7.8224 C.3       1 UNK         0.0000 
  18292 H(1)       62.5231  101.5645   11.3824 H         1 UNK         0.0000 
  18293 H(2)       62.5404  101.0115   13.7701 H         1 UNK         0.0000 
  18294 H(3)       58.6808  102.8325   14.2404 H         1 UNK         0.0000 
  18295 H(4)       58.6680  103.3883   11.8334 H         1 UNK         0.0000 
  18296 H(5)       59.8109  101.6647   15.9075 H         1 UNK         0.0000 
  18297 H(6)       59.5750  103.1397    9.7711 H         1 UNK         0.0000 
  18298 H(7)       61.1291  102.6559    7.1624 H         1 UNK         0.0000 
  18299 H(8)       60.0541  103.8375    7.8021 H         1 UNK         0.0000 
  18300 H(9)       61.7314  104.2035    7.4544 H         1 UNK         0.0000 
  18301 O(1)       61.8170   98.2434   12.3169 O.3       1 UNK         0.0000 
  18302 O(2)       59.8192   92.0746   12.2011 O.2       1 UNK         0.0000 
  18303 N(1)       62.0003   92.6790   12.3888 N.am      1 UNK         0.0000 
  18304 C(1)       61.9009   94.0874   12.3376 C.ar      1 UNK         0.0000 
  18305 C(2)       60.8187   94.7757   11.7893 C.ar      1 UNK         0.0000 
  18306 C(3)       60.8117   96.1675   11.7858 C.ar      1 UNK         0.0000 
  18307 C(4)       61.8817   96.8821   12.3181 C.ar      1 UNK         0.0000 
  18308 C(5)       62.9773   96.1941   12.8383 C.ar      1 UNK         0.0000 
  18309 C(6)       62.9826   94.8066   12.8470 C.ar      1 UNK         0.0000 
  18310 C(7)       61.0096   91.7737   12.3420 C.2       1 UNK         0.0000 
  18311 C(8)       61.4504   90.3396   12.4630 C.3       1 UNK         0.0000 
  18312 H(1)       59.9782   94.2331   11.3746 H         1 UNK         0.0000 
  18313 H(2)       59.9609   96.6839   11.3587 H         1 UNK         0.0000 
  18314 H(3)       63.8205   96.7434   13.2386 H         1 UNK         0.0000 
  18315 H(4)       63.8333   94.2731   13.2530 H         1 UNK         0.0000 
  18316 H(5)       62.6904   98.6260   12.4649 H         1 UNK         0.0000 
  18317 H(6)       62.9263   92.3155   12.5580 H         1 UNK         0.0000 
  18318 H(7)       61.3722   89.8765   11.5138 H         1 UNK         0.0000 
  18319 H(8)       62.4472   90.2414   12.8070 H         1 UNK         0.0000 
  18320 H(9)       60.7699   89.8219   13.0878 H         1 UNK         0.0000 
  18321 O(1)       66.1509  106.4590   13.4097 O.3       1 UNK         0.0000 
  18322 O(2)       64.1531  105.2189   19.4537 O.2       1 UNK         0.0000 
  18323 N(1)       66.3342  105.1683   18.8228 N.am      1 UNK         0.0000 
  18324 C(1)       66.2348  105.5272   17.4599 C.ar      1 UNK         0.0000 
  18325 C(2)       65.1526  106.2131   16.9087 C.ar      1 UNK         0.0000 
  18326 C(3)       65.1456  106.5218   15.5516 C.ar      1 UNK         0.0000 
  18327 C(4)       66.2156  106.1592   14.7376 C.ar      1 UNK         0.0000 
  18328 C(5)       67.3112  105.5008   15.2947 C.ar      1 UNK         0.0000 
  18329 C(6)       67.3165  105.1879   16.6465 C.ar      1 UNK         0.0000 
  18330 C(7)       65.3435  105.0154   19.7163 C.2       1 UNK         0.0000 
  18331 C(8)       65.7843  104.5828   21.0890 C.3       1 UNK         0.0000 
  18332 H(1)       64.3121  106.4987   17.5290 H         1 UNK         0.0000 
  18333 H(2)       64.2948  107.0517   15.1413 H         1 UNK         0.0000 
  18334 H(3)       68.1544  105.2307   14.6710 H         1 UNK         0.0000 
  18335 H(4)       68.1671  104.6748   17.0780 H         1 UNK         0.0000 
  18336 H(5)       67.0243  106.3985   13.0039 H         1 UNK         0.0000 
  18337 H(6)       67.2602  104.9235   19.1403 H         1 UNK         0.0000 
  18338 H(7)       65.7060  105.4073   21.7490 H         1 UNK         0.0000 
  18339 H(8)       66.7811  104.2257   21.1093 H         1 UNK         0.0000 
  18340 H(9)       65.1038  103.8597   21.4570 H         1 UNK         0.0000 
  18341 O(1)       70.5044   95.1375   16.5945 O.3       1 UNK         0.0000 
  18342 O(2)       72.5022  101.3063   16.7103 O.2       1 UNK         0.0000 
  18343 N(1)       70.3211  100.7019   16.5226 N.am      1 UNK         0.0000 
  18344 C(1)       70.4205   99.2934   16.5738 C.ar      1 UNK         0.0000 
  18345 C(2)       71.5027   98.6052   17.1221 C.ar      1 UNK         0.0000 
  18346 C(3)       71.5097   97.2134   17.1257 C.ar      1 UNK         0.0000 
  18347 C(4)       70.4397   96.4988   16.5933 C.ar      1 UNK         0.0000 
  18348 C(5)       69.3441   97.1867   16.0731 C.ar      1 UNK         0.0000 
  18349 C(6)       69.3388   98.5743   16.0644 C.ar      1 UNK         0.0000 
  18350 C(7)       71.3118  101.6072   16.5694 C.2       1 UNK         0.0000 
  18351 C(8)       70.8710  103.0413   16.4484 C.3       1 UNK         0.0000 
  18352 H(1)       72.3432   99.1477   17.5368 H         1 UNK         0.0000 
  18353 H(2)       72.3605   96.6969   17.5527 H         1 UNK         0.0000 
  18354 H(3)       68.5009   96.6375   15.6728 H         1 UNK         0.0000 
  18355 H(4)       68.4882   99.1078   15.6585 H         1 UNK         0.0000 
  18356 H(5)       69.6310   94.7549   16.4465 H         1 UNK         0.0000 
  18357 H(6)       69.3951  101.0653   16.3534 H         1 UNK         0.0000 
  18358 H(7)       70.9492  103.5044   17.3976 H         1 UNK         0.0000 
  18359 H(8)       69.8742  103.1394   16.1044 H         1 UNK         0.0000 
  18360 H(9)       71.5515  103.5590   15.8236 H         1 UNK         0.0000 
  18361 O(1)       66.1705   92.6529   22.6641 O.3       1 UNK         0.0000 
  18362 O(2)       68.1683   93.8929   16.6201 O.2       1 UNK         0.0000 
  18363 N(1)       65.9872   93.9436   17.2510 N.am      1 UNK         0.0000 
  18364 C(1)       66.0866   93.5847   18.6139 C.ar      1 UNK         0.0000 
  18365 C(2)       67.1688   92.8988   19.1651 C.ar      1 UNK         0.0000 
  18366 C(3)       67.1758   92.5900   20.5223 C.ar      1 UNK         0.0000 
  18367 C(4)       66.1058   92.9527   21.3362 C.ar      1 UNK         0.0000 
  18368 C(5)       65.0102   93.6110   20.7791 C.ar      1 UNK         0.0000 
  18369 C(6)       65.0049   93.9239   19.4273 C.ar      1 UNK         0.0000 
  18370 C(7)       66.9780   94.0964   16.3575 C.2       1 UNK         0.0000 
  18371 C(8)       66.5371   94.5290   14.9848 C.3       1 UNK         0.0000 
  18372 H(1)       68.0093   92.6131   18.5448 H         1 UNK         0.0000 
  18373 H(2)       68.0266   92.0601   20.9325 H         1 UNK         0.0000 
  18374 H(3)       64.1670   93.8811   21.4028 H         1 UNK         0.0000 
  18375 H(4)       64.1543   94.4370   18.9958 H         1 UNK         0.0000 
  18376 H(5)       65.2971   92.7134   23.0699 H         1 UNK         0.0000 
  18377 H(6)       65.0612   94.1883   16.9335 H         1 UNK         0.0000 
  18378 H(7)       66.6154   93.7046   14.3248 H         1 UNK         0.0000 
  18379 H(8)       65.5403   94.8862   14.9645 H         1 UNK         0.0000 
  18380 H(9)       67.2176   95.2521   14.6168 H         1 UNK         0.0000 
  18381 O(1)       68.8940  103.9743   19.4793 O.3       1 UNK         0.0000 
  18382 O(2)       66.8962   97.8056   19.3635 O.2       1 UNK         0.0000 
  18383 N(1)       69.0773   98.4100   19.5512 N.am      1 UNK         0.0000 
  18384 C(1)       68.9779   99.8184   19.5000 C.ar      1 UNK         0.0000 
  18385 C(2)       67.8957  100.5066   18.9517 C.ar      1 UNK         0.0000 
  18386 C(3)       67.8887  101.8984   18.9482 C.ar      1 UNK         0.0000 
  18387 C(4)       68.9587  102.6130   19.4805 C.ar      1 UNK         0.0000 
  18388 C(5)       70.0543  101.9251   20.0007 C.ar      1 UNK         0.0000 
  18389 C(6)       70.0596  100.5376   20.0094 C.ar      1 UNK         0.0000 
  18390 C(7)       68.0866   97.5047   19.5044 C.2       1 UNK         0.0000 
  18391 C(8)       68.5274   96.0705   19.6254 C.3       1 UNK         0.0000 
  18392 H(1)       67.0552   99.9641   18.5370 H         1 UNK         0.0000 
  18393 H(2)       67.0379  102.4149   18.5211 H         1 UNK         0.0000 
  18394 H(3)       70.8975  102.4744   20.4010 H         1 UNK         0.0000 
  18395 H(4)       70.9103  100.0041   20.4154 H         1 UNK         0.0000 
  18396 H(5)       69.7674  104.3570   19.6273 H         1 UNK         0.0000 
  18397 H(6)       70.0033   98.0465   19.7204 H         1 UNK         0.0000 
  18398 H(7)       68.4492   95.6074   18.6762 H         1 UNK         0.0000 
  18399 H(8)       69.5242   95.9724   19.9694 H         1 UNK         0.0000 
  18400 H(9)       67.8469   95.5529   20.2502 H         1 UNK         0.0000 
  18401 O(1)       64.5601   97.5076   20.5721 O.3       1 UNK         0.0000 
  18402 O(2)       62.5623   96.2675   26.6161 O.2       1 UNK         0.0000 
  18403 N(1)       64.7434   96.2169   25.9852 N.am      1 UNK         0.0000 
  18404 C(1)       64.6440   96.5758   24.6223 C.ar      1 UNK         0.0000 
  18405 C(2)       63.5618   97.2617   24.0711 C.ar      1 UNK         0.0000 
  18406 C(3)       63.5548   97.5705   22.7140 C.ar      1 UNK         0.0000 
  18407 C(4)       64.6248   97.2078   21.9000 C.ar      1 UNK         0.0000 
  18408 C(5)       65.7204   96.5494   22.4571 C.ar      1 UNK         0.0000 
  18409 C(6)       65.7257   96.2365   23.8089 C.ar      1 UNK         0.0000 
  18410 C(7)       63.7527   96.0641   26.8787 C.2       1 UNK         0.0000 
  18411 C(8)       64.1935   95.6314   28.2514 C.3       1 UNK         0.0000 
  18412 H(1)       62.7213   97.5474   24.6914 H         1 UNK         0.0000 
  18413 H(2)       62.7040   98.1004   22.3037 H         1 UNK         0.0000 
  18414 H(3)       66.5636   96.2793   21.8334 H         1 UNK         0.0000 
  18415 H(4)       66.5764   95.7235   24.2404 H         1 UNK         0.0000 
  18416 H(5)       65.4336   97.4471   20.1663 H         1 UNK         0.0000 
  18417 H(6)       65.6694   95.9722   26.3027 H         1 UNK         0.0000 
  18418 H(7)       64.1153   96.4559   28.9114 H         1 UNK         0.0000 
  18419 H(8)       65.1903   95.2743   28.2717 H         1 UNK         0.0000 
  18420 H(9)       63.5130   94.9083   28.6194 H         1 UNK         0.0000 
  18421 O(1)       63.4274  100.8684   23.7569 O.3       1 UNK         0.0000 
  18422 O(2)       65.4252  107.0372   23.8727 O.2       1 UNK         0.0000 
  18423 N(1)       63.2441  106.4328   23.6850 N.am      1 UNK         0.0000 
  18424 C(1)       63.3435  105.0244   23.7362 C.ar      1 UNK         0.0000 
  18425 C(2)       64.4257  104.3362   24.2845 C.ar      1 UNK         0.0000 
  18426 C(3)       64.4327  102.9444   24.2881 C.ar      1 UNK         0.0000 
  18427 C(4)       63.3627  102.2298   23.7557 C.ar      1 UNK         0.0000 
  18428 C(5)       62.2671  102.9177   23.2355 C.ar      1 UNK         0.0000 
  18429 C(6)       62.2618  104.3052   23.2268 C.ar      1 UNK         0.0000 
  18430 C(7)       64.2348  107.3381   23.7318 C.2       1 UNK         0.0000 
  18431 C(8)       63.7940  108.7723   23.6108 C.3       1 UNK         0.0000 
  18432 H(1)       65.2662  104.8787   24.6992 H         1 UNK         0.0000 
  18433 H(2)       65.2835  102.4279   24.7151 H         1 UNK         0.0000 
  18434 H(3)       61.4239  102.3684   22.8352 H         1 UNK         0.0000 
  18435 H(4)       61.4112  104.8387   22.8209 H         1 UNK         0.0000 
  18436 H(5)       62.5540  100.4858   23.6089 H         1 UNK         0.0000 
  18437 H(6)       62.3181  106.7963   23.5158 H         1 UNK         0.0000 
  18438 H(7)       63.8722  109.2354   24.5600 H         1 UNK         0.0000 
  18439 H(8)       62.7972  108.8704   23.2668 H         1 UNK         0.0000 
  18440 H(9)       64.4745  109.2899   22.9860 H         1 UNK         0.0000 
  18441 O(1)       67.7613   95.8732    8.3393 O.3       1 UNK         0.0000 
  18442 O(2)       69.7591   97.1133    2.2953 O.2       1 UNK         0.0000 
  18443 N(1)       67.5780   97.1640    2.9262 N.am      1 UNK         0.0000 
  18444 C(1)       67.6774   96.8050    4.2891 C.ar      1 UNK         0.0000 
  18445 C(2)       68.7596   96.1192    4.8403 C.ar      1 UNK         0.0000 
  18446 C(3)       68.7666   95.8104    6.1975 C.ar      1 UNK         0.0000 
  18447 C(4)       67.6966   96.1731    7.0114 C.ar      1 UNK         0.0000 
  18448 C(5)       66.6010   96.8314    6.4543 C.ar      1 UNK         0.0000 
  18449 C(6)       66.5957   97.1443    5.1025 C.ar      1 UNK         0.0000 
  18450 C(7)       68.5687   97.3168    2.0327 C.2       1 UNK         0.0000 
  18451 C(8)       68.1279   97.7494    0.6600 C.3       1 UNK         0.0000 
  18452 H(1)       69.6001   95.8335    4.2200 H         1 UNK         0.0000 
  18453 H(2)       69.6174   95.2805    6.6077 H         1 UNK         0.0000 
  18454 H(3)       65.7578   97.1015    7.0780 H         1 UNK         0.0000 
  18455 H(4)       65.7450   97.6574    4.6710 H         1 UNK         0.0000 
  18456 H(5)       66.8879   95.9338    8.7451 H         1 UNK         0.0000 
  18457 H(6)       66.6520   97.4087    2.6087 H         1 UNK         0.0000 
  18458 H(7)       68.2061   96.9250    0.0000 H         1 UNK         0.0000 
  18459 H(8)       67.1311   98.1066    0.6397 H         1 UNK         0.0000 
  18460 H(9)       68.8084   98.4725    0.2920 H         1 UNK         0.0000 
  18461 O(1)       70.4848  107.1947    5.1545 O.3       1 UNK         0.0000 
  18462 O(2)       68.4870  101.0260    5.0387 O.2       1 UNK         0.0000 
  18463 N(1)       70.6681  101.6304    5.2264 N.am      1 UNK         0.0000 
  18464 C(1)       70.5687  103.0388    5.1752 C.ar      1 UNK         0.0000 
  18465 C(2)       69.4865  103.7270    4.6269 C.ar      1 UNK         0.0000 
  18466 C(3)       69.4795  105.1188    4.6234 C.ar      1 UNK         0.0000 
  18467 C(4)       70.5495  105.8334    5.1557 C.ar      1 UNK         0.0000 
  18468 C(5)       71.6451  105.1455    5.6759 C.ar      1 UNK         0.0000 
  18469 C(6)       71.6504  103.7580    5.6846 C.ar      1 UNK         0.0000 
  18470 C(7)       69.6773  100.7251    5.1796 C.2       1 UNK         0.0000 
  18471 C(8)       70.1182   99.2909    5.3006 C.3       1 UNK         0.0000 
  18472 H(1)       68.6460  103.1845    4.2122 H         1 UNK         0.0000 
  18473 H(2)       68.6287  105.6353    4.1963 H         1 UNK         0.0000 
  18474 H(3)       72.4883  105.6948    6.0762 H         1 UNK         0.0000 
  18475 H(4)       72.5010  103.2245    6.0906 H         1 UNK         0.0000 
  18476 H(5)       71.3582  107.5773    5.3025 H         1 UNK         0.0000 
  18477 H(6)       71.5941  101.2669    5.3956 H         1 UNK         0.0000 
  18478 H(7)       70.0399   98.8278    4.3514 H         1 UNK         0.0000 
  18479 H(8)       71.1150   99.1928    5.6446 H         1 UNK         0.0000 
  18480 H(9)       69.4377   98.7733    5.9254 H         1 UNK         0.0000 
  18481 O(1)       67.7417  115.4103    6.2473 O.3       1 UNK         0.0000 
  18482 O(2)       65.7439  114.1703   12.2913 O.2       1 UNK         0.0000 
  18483 N(1)       67.9250  114.1196   11.6604 N.am      1 UNK         0.0000 
  18484 C(1)       67.8256  114.4785   10.2975 C.ar      1 UNK         0.0000 
  18485 C(2)       66.7434  115.1644    9.7463 C.ar      1 UNK         0.0000 
  18486 C(3)       66.7364  115.4732    8.3892 C.ar      1 UNK         0.0000 
  18487 C(4)       67.8064  115.1105    7.5752 C.ar      1 UNK         0.0000 
  18488 C(5)       68.9020  114.4521    8.1323 C.ar      1 UNK         0.0000 
  18489 C(6)       68.9073  114.1393    9.4841 C.ar      1 UNK         0.0000 
  18490 C(7)       66.9342  113.9668   12.5539 C.2       1 UNK         0.0000 
  18491 C(8)       67.3751  113.5342   13.9266 C.3       1 UNK         0.0000 
  18492 H(1)       65.9029  115.4501   10.3666 H         1 UNK         0.0000 
  18493 H(2)       65.8856  116.0031    7.9789 H         1 UNK         0.0000 
  18494 H(3)       69.7452  114.1821    7.5086 H         1 UNK         0.0000 
  18495 H(4)       69.7579  113.6262    9.9156 H         1 UNK         0.0000 
  18496 H(5)       68.6151  115.3498    5.8415 H         1 UNK         0.0000 
  18497 H(6)       68.8510  113.8749   11.9779 H         1 UNK         0.0000 
  18498 H(7)       67.2968  114.3586   14.5866 H         1 UNK         0.0000 
  18499 H(8)       68.3719  113.1770   13.9469 H         1 UNK         0.0000 
  18500 H(9)       66.6946  112.8111   14.2946 H         1 UNK         0.0000 
  18501 O(1)       72.0952  104.0888    9.4321 O.3       1 UNK         0.0000 
  18502 O(2)       74.0930  110.2576    9.5479 O.2       1 UNK         0.0000 
  18503 N(1)       71.9118  109.6532    9.3602 N.am      1 UNK         0.0000 
  18504 C(1)       72.0113  108.2448    9.4114 C.ar      1 UNK         0.0000 
  18505 C(2)       73.0935  107.5566    9.9597 C.ar      1 UNK         0.0000 
  18506 C(3)       73.1005  106.1648    9.9633 C.ar      1 UNK         0.0000 
  18507 C(4)       72.0305  105.4502    9.4309 C.ar      1 UNK         0.0000 
  18508 C(5)       70.9349  106.1381    8.9107 C.ar      1 UNK         0.0000 
  18509 C(6)       70.9296  107.5256    8.9020 C.ar      1 UNK         0.0000 
  18510 C(7)       72.9026  110.5585    9.4070 C.2       1 UNK         0.0000 
  18511 C(8)       72.4618  111.9927    9.2860 C.3       1 UNK         0.0000 
  18512 H(1)       73.9340  108.0991   10.3744 H         1 UNK         0.0000 
  18513 H(2)       73.9513  105.6483   10.3903 H         1 UNK         0.0000 
  18514 H(3)       70.0917  105.5888    8.5104 H         1 UNK         0.0000 
  18515 H(4)       70.0789  108.0591    8.4961 H         1 UNK         0.0000 
  18516 H(5)       71.2217  103.7062    9.2841 H         1 UNK         0.0000 
  18517 H(6)       70.9859  110.0167    9.1910 H         1 UNK         0.0000 
  18518 H(7)       72.5400  112.4558   10.2352 H         1 UNK         0.0000 
  18519 H(8)       71.4650  112.0908    8.9420 H         1 UNK         0.0000 
  18520 H(9)       73.1422  112.5103    8.6612 H         1 UNK         0.0000 
  18521 O(1)       62.2751  116.2865   15.5017 O.3       1 UNK         0.0000 
  18522 O(2)       64.2729  117.5266    9.4577 O.2       1 UNK         0.0000 
  18523 N(1)       62.0917  117.5773   10.0886 N.am      1 UNK         0.0000 
  18524 C(1)       62.1912  117.2183   11.4515 C.ar      1 UNK         0.0000 
  18525 C(2)       63.2733  116.5325   12.0027 C.ar      1 UNK         0.0000 
  18526 C(3)       63.2804  116.2237   13.3599 C.ar      1 UNK         0.0000 
  18527 C(4)       62.2104  116.5864   14.1738 C.ar      1 UNK         0.0000 
  18528 C(5)       61.1147  117.2447   13.6167 C.ar      1 UNK         0.0000 
  18529 C(6)       61.1094  117.5576   12.2649 C.ar      1 UNK         0.0000 
  18530 C(7)       63.0825  117.7301    9.1951 C.2       1 UNK         0.0000 
  18531 C(8)       62.6417  118.1627    7.8224 C.3       1 UNK         0.0000 
  18532 H(1)       64.1139  116.2468   11.3824 H         1 UNK         0.0000 
  18533 H(2)       64.1312  115.6938   13.7701 H         1 UNK         0.0000 
  18534 H(3)       60.2716  117.5148   14.2404 H         1 UNK         0.0000 
  18535 H(4)       60.2588  118.0707   11.8334 H         1 UNK         0.0000 
  18536 H(5)       61.4016  116.3471   15.9075 H         1 UNK         0.0000 
  18537 H(6)       61.1658  117.8220    9.7711 H         1 UNK         0.0000 
  18538 H(7)       62.7199  117.3383    7.1624 H         1 UNK         0.0000 
  18539 H(8)       61.6449  118.5199    7.8021 H         1 UNK         0.0000 
  18540 H(9)       63.3221  118.8858    7.4544 H         1 UNK         0.0000 
  18541 O(1)       63.4078  112.9257   12.3169 O.3       1 UNK         0.0000 
  18542 O(2)       61.4100  106.7569   12.2011 O.2       1 UNK         0.0000 
  18543 N(1)       63.5911  107.3613   12.3888 N.am      1 UNK         0.0000 
  18544 C(1)       63.4917  108.7698   12.3376 C.ar      1 UNK         0.0000 
  18545 C(2)       62.4095  109.4580   11.7893 C.ar      1 UNK         0.0000 
  18546 C(3)       62.4025  110.8498   11.7858 C.ar      1 UNK         0.0000 
  18547 C(4)       63.4725  111.5644   12.3181 C.ar      1 UNK         0.0000 
  18548 C(5)       64.5681  110.8765   12.8383 C.ar      1 UNK         0.0000 
  18549 C(6)       64.5734  109.4889   12.8470 C.ar      1 UNK         0.0000 
  18550 C(7)       62.6003  106.4560   12.3420 C.2       1 UNK         0.0000 
  18551 C(8)       63.0412  105.0219   12.4630 C.3       1 UNK         0.0000 
  18552 H(1)       61.5690  108.9154   11.3746 H         1 UNK         0.0000 
  18553 H(2)       61.5517  111.3663   11.3587 H         1 UNK         0.0000 
  18554 H(3)       65.4113  111.4257   13.2386 H         1 UNK         0.0000 
  18555 H(4)       65.4240  108.9554   13.2530 H         1 UNK         0.0000 
  18556 H(5)       64.2812  113.3083   12.4649 H         1 UNK         0.0000 
  18557 H(6)       64.5171  106.9979   12.5580 H         1 UNK         0.0000 
  18558 H(7)       62.9629  104.5588   11.5138 H         1 UNK         0.0000 
  18559 H(8)       64.0380  104.9238   12.8070 H         1 UNK         0.0000 
  18560 H(9)       62.3607  104.5042   13.0878 H         1 UNK         0.0000 
  18561 O(1)       67.7417  121.1413   13.4097 O.3       1 UNK         0.0000 
  18562 O(2)       65.7439  119.9012   19.4537 O.2       1 UNK         0.0000 
  18563 N(1)       67.9250  119.8506   18.8228 N.am      1 UNK         0.0000 
  18564 C(1)       67.8256  120.2095   17.4599 C.ar      1 UNK         0.0000 
  18565 C(2)       66.7434  120.8954   16.9087 C.ar      1 UNK         0.0000 
  18566 C(3)       66.7364  121.2042   15.5516 C.ar      1 UNK         0.0000 
  18567 C(4)       67.8064  120.8415   14.7376 C.ar      1 UNK         0.0000 
  18568 C(5)       68.9020  120.1831   15.2947 C.ar      1 UNK         0.0000 
  18569 C(6)       68.9073  119.8702   16.6465 C.ar      1 UNK         0.0000 
  18570 C(7)       66.9342  119.6978   19.7163 C.2       1 UNK         0.0000 
  18571 C(8)       67.3751  119.2651   21.0890 C.3       1 UNK         0.0000 
  18572 H(1)       65.9029  121.1810   17.5290 H         1 UNK         0.0000 
  18573 H(2)       65.8856  121.7341   15.1413 H         1 UNK         0.0000 
  18574 H(3)       69.7452  119.9130   14.6710 H         1 UNK         0.0000 
  18575 H(4)       69.7579  119.3572   17.0780 H         1 UNK         0.0000 
  18576 H(5)       68.6151  121.0808   13.0039 H         1 UNK         0.0000 
  18577 H(6)       68.8510  119.6059   19.1403 H         1 UNK         0.0000 
  18578 H(7)       67.2968  120.0896   21.7490 H         1 UNK         0.0000 
  18579 H(8)       68.3719  118.9080   21.1093 H         1 UNK         0.0000 
  18580 H(9)       66.6946  118.5420   21.4570 H         1 UNK         0.0000 
  18581 O(1)       72.0952  109.8198   16.5945 O.3       1 UNK         0.0000 
  18582 O(2)       74.0930  115.9886   16.7103 O.2       1 UNK         0.0000 
  18583 N(1)       71.9118  115.3842   16.5226 N.am      1 UNK         0.0000 
  18584 C(1)       72.0113  113.9758   16.5738 C.ar      1 UNK         0.0000 
  18585 C(2)       73.0935  113.2875   17.1221 C.ar      1 UNK         0.0000 
  18586 C(3)       73.1005  111.8957   17.1257 C.ar      1 UNK         0.0000 
  18587 C(4)       72.0305  111.1811   16.5933 C.ar      1 UNK         0.0000 
  18588 C(5)       70.9349  111.8690   16.0731 C.ar      1 UNK         0.0000 
  18589 C(6)       70.9296  113.2566   16.0644 C.ar      1 UNK         0.0000 
  18590 C(7)       72.9026  116.2895   16.5694 C.2       1 UNK         0.0000 
  18591 C(8)       72.4618  117.7236   16.4484 C.3       1 UNK         0.0000 
  18592 H(1)       73.9340  113.8301   17.5368 H         1 UNK         0.0000 
  18593 H(2)       73.9513  111.3793   17.5527 H         1 UNK         0.0000 
  18594 H(3)       70.0917  111.3198   15.6728 H         1 UNK         0.0000 
  18595 H(4)       70.0789  113.7901   15.6585 H         1 UNK         0.0000 
  18596 H(5)       71.2217  109.4372   16.4465 H         1 UNK         0.0000 
  18597 H(6)       70.9859  115.7477   16.3534 H         1 UNK         0.0000 
  18598 H(7)       72.5400  118.1867   17.3976 H         1 UNK         0.0000 
  18599 H(8)       71.4650  117.8218   16.1044 H         1 UNK         0.0000 
  18600 H(9)       73.1422  118.2413   15.8236 H         1 UNK         0.0000 
  18601 O(1)       67.7613  107.3352   22.6641 O.3       1 UNK         0.0000 
  18602 O(2)       69.7591  108.5753   16.6201 O.2       1 UNK         0.0000 
  18603 N(1)       67.5780  108.6259   17.2510 N.am      1 UNK         0.0000 
  18604 C(1)       67.6774  108.2670   18.6139 C.ar      1 UNK         0.0000 
  18605 C(2)       68.7596  107.5811   19.1651 C.ar      1 UNK         0.0000 
  18606 C(3)       68.7666  107.2723   20.5223 C.ar      1 UNK         0.0000 
  18607 C(4)       67.6966  107.6350   21.3362 C.ar      1 UNK         0.0000 
  18608 C(5)       66.6010  108.2934   20.7791 C.ar      1 UNK         0.0000 
  18609 C(6)       66.5957  108.6062   19.4273 C.ar      1 UNK         0.0000 
  18610 C(7)       68.5687  108.7787   16.3575 C.2       1 UNK         0.0000 
  18611 C(8)       68.1279  109.2114   14.9848 C.3       1 UNK         0.0000 
  18612 H(1)       69.6001  107.2954   18.5448 H         1 UNK         0.0000 
  18613 H(2)       69.6174  106.7424   20.9325 H         1 UNK         0.0000 
  18614 H(3)       65.7578  108.5635   21.4028 H         1 UNK         0.0000 
  18615 H(4)       65.7450  109.1193   18.9958 H         1 UNK         0.0000 
  18616 H(5)       66.8879  107.3957   23.0699 H         1 UNK         0.0000 
  18617 H(6)       66.6520  108.8706   16.9335 H         1 UNK         0.0000 
  18618 H(7)       68.2061  108.3869   14.3248 H         1 UNK         0.0000 
  18619 H(8)       67.1311  109.5685   14.9645 H         1 UNK         0.0000 
  18620 H(9)       68.8084  109.9345   14.6168 H         1 UNK         0.0000 
  18621 O(1)       70.4848  118.6567   19.4793 O.3       1 UNK         0.0000 
  18622 O(2)       68.4870  112.4879   19.3635 O.2       1 UNK         0.0000 
  18623 N(1)       70.6681  113.0923   19.5512 N.am      1 UNK         0.0000 
  18624 C(1)       70.5687  114.5007   19.5000 C.ar      1 UNK         0.0000 
  18625 C(2)       69.4865  115.1890   18.9517 C.ar      1 UNK         0.0000 
  18626 C(3)       69.4795  116.5808   18.9482 C.ar      1 UNK         0.0000 
  18627 C(4)       70.5495  117.2954   19.4805 C.ar      1 UNK         0.0000 
  18628 C(5)       71.6451  116.6074   20.0007 C.ar      1 UNK         0.0000 
  18629 C(6)       71.6504  115.2199   20.0094 C.ar      1 UNK         0.0000 
  18630 C(7)       69.6773  112.1870   19.5044 C.2       1 UNK         0.0000 
  18631 C(8)       70.1182  110.7529   19.6254 C.3       1 UNK         0.0000 
  18632 H(1)       68.6460  114.6464   18.5370 H         1 UNK         0.0000 
  18633 H(2)       68.6287  117.0972   18.5211 H         1 UNK         0.0000 
  18634 H(3)       72.4883  117.1567   20.4010 H         1 UNK         0.0000 
  18635 H(4)       72.5010  114.6864   20.4154 H         1 UNK         0.0000 
  18636 H(5)       71.3582  119.0393   19.6273 H         1 UNK         0.0000 
  18637 H(6)       71.5941  112.7288   19.7204 H         1 UNK         0.0000 
  18638 H(7)       70.0399  110.2898   18.6762 H         1 UNK         0.0000 
  18639 H(8)       71.1150  110.6547   19.9694 H         1 UNK         0.0000 
  18640 H(9)       69.4377  110.2352   20.2502 H         1 UNK         0.0000 
  18641 O(1)       66.1509  112.1899   20.5721 O.3       1 UNK         0.0000 
  18642 O(2)       64.1531  110.9499   26.6161 O.2       1 UNK         0.0000 
  18643 N(1)       66.3342  110.8992   25.9852 N.am      1 UNK         0.0000 
  18644 C(1)       66.2348  111.2581   24.6223 C.ar      1 UNK         0.0000 
  18645 C(2)       65.1526  111.9440   24.0711 C.ar      1 UNK         0.0000 
  18646 C(3)       65.1456  112.2528   22.7140 C.ar      1 UNK         0.0000 
  18647 C(4)       66.2156  111.8901   21.9000 C.ar      1 UNK         0.0000 
  18648 C(5)       67.3112  111.2318   22.4571 C.ar      1 UNK         0.0000 
  18649 C(6)       67.3165  110.9189   23.8089 C.ar      1 UNK         0.0000 
  18650 C(7)       65.3435  110.7464   26.8787 C.2       1 UNK         0.0000 
  18651 C(8)       65.7843  110.3138   28.2514 C.3       1 UNK         0.0000 
  18652 H(1)       64.3121  112.2297   24.6914 H         1 UNK         0.0000 
  18653 H(2)       64.2948  112.7827   22.3037 H         1 UNK         0.0000 
  18654 H(3)       68.1544  110.9617   21.8334 H         1 UNK         0.0000 
  18655 H(4)       68.1671  110.4058   24.2404 H         1 UNK         0.0000 
  18656 H(5)       67.0243  112.1294   20.1663 H         1 UNK         0.0000 
  18657 H(6)       67.2602  110.6545   26.3027 H         1 UNK         0.0000 
  18658 H(7)       65.7060  111.1382   28.9114 H         1 UNK         0.0000 
  18659 H(8)       66.7811  109.9566   28.2717 H         1 UNK         0.0000 
  18660 H(9)       65.1038  109.5907   28.6194 H         1 UNK         0.0000 
  18661 O(1)       65.0182  115.5508   23.7569 O.3       1 UNK         0.0000 
  18662 O(2)       67.0160  121.7196   23.8727 O.2       1 UNK         0.0000 
  18663 N(1)       64.8348  121.1152   23.6850 N.am      1 UNK         0.0000 
  18664 C(1)       64.9343  119.7067   23.7362 C.ar      1 UNK         0.0000 
  18665 C(2)       66.0165  119.0185   24.2845 C.ar      1 UNK         0.0000 
  18666 C(3)       66.0235  117.6267   24.2881 C.ar      1 UNK         0.0000 
  18667 C(4)       64.9535  116.9121   23.7557 C.ar      1 UNK         0.0000 
  18668 C(5)       63.8579  117.6000   23.2355 C.ar      1 UNK         0.0000 
  18669 C(6)       63.8526  118.9876   23.2268 C.ar      1 UNK         0.0000 
  18670 C(7)       65.8256  122.0205   23.7318 C.2       1 UNK         0.0000 
  18671 C(8)       65.3848  123.4546   23.6108 C.3       1 UNK         0.0000 
  18672 H(1)       66.8570  119.5610   24.6992 H         1 UNK         0.0000 
  18673 H(2)       66.8743  117.1102   24.7151 H         1 UNK         0.0000 
  18674 H(3)       63.0147  117.0508   22.8352 H         1 UNK         0.0000 
  18675 H(4)       63.0019  119.5211   22.8209 H         1 UNK         0.0000 
  18676 H(5)       64.1447  115.1682   23.6089 H         1 UNK         0.0000 
  18677 H(6)       63.9089  121.4786   23.5158 H         1 UNK         0.0000 
  18678 H(7)       65.4630  123.9177   24.5600 H         1 UNK         0.0000 
  18679 H(8)       64.3880  123.5527   23.2668 H         1 UNK         0.0000 
  18680 H(9)       66.0652  123.9723   22.9860 H         1 UNK         0.0000 
  18681 O(1)       69.3521  110.5556    8.3393 O.3       1 UNK         0.0000 
  18682 O(2)       71.3499  111.7957    2.2953 O.2       1 UNK         0.0000 
  18683 N(1)       69.1687  111.8463    2.9262 N.am      1 UNK         0.0000 
  18684 C(1)       69.2682  111.4874    4.2891 C.ar      1 UNK         0.0000 
  18685 C(2)       70.3503  110.8015    4.8403 C.ar      1 UNK         0.0000 
  18686 C(3)       70.3574  110.4927    6.1975 C.ar      1 UNK         0.0000 
  18687 C(4)       69.2874  110.8554    7.0114 C.ar      1 UNK         0.0000 
  18688 C(5)       68.1917  111.5138    6.4543 C.ar      1 UNK         0.0000 
  18689 C(6)       68.1864  111.8266    5.1025 C.ar      1 UNK         0.0000 
  18690 C(7)       70.1595  111.9991    2.0327 C.2       1 UNK         0.0000 
  18691 C(8)       69.7187  112.4318    0.6600 C.3       1 UNK         0.0000 
  18692 H(1)       71.1909  110.5158    4.2200 H         1 UNK         0.0000 
  18693 H(2)       71.2082  109.9628    6.6077 H         1 UNK         0.0000 
  18694 H(3)       67.3486  111.7839    7.0780 H         1 UNK         0.0000 
  18695 H(4)       67.3358  112.3397    4.6710 H         1 UNK         0.0000 
  18696 H(5)       68.4786  110.6161    8.7451 H         1 UNK         0.0000 
  18697 H(6)       68.2428  112.0910    2.6087 H         1 UNK         0.0000 
  18698 H(7)       69.7969  111.6073    0.0000 H         1 UNK         0.0000 
  18699 H(8)       68.7219  112.7889    0.6397 H         1 UNK         0.0000 
  18700 H(9)       70.3991  113.1549    0.2920 H         1 UNK         0.0000 
  18701 O(1)       72.0756  121.8771    5.1545 O.3       1 UNK         0.0000 
  18702 O(2)       70.0778  115.7083    5.0387 O.2       1 UNK         0.0000 
  18703 N(1)       72.2589  116.3127    5.2264 N.am      1 UNK         0.0000 
  18704 C(1)       72.1595  117.7211    5.1752 C.ar      1 UNK         0.0000 
  18705 C(2)       71.0773  118.4094    4.6269 C.ar      1 UNK         0.0000 
  18706 C(3)       71.0703  119.8012    4.6234 C.ar      1 UNK         0.0000 
  18707 C(4)       72.1403  120.5158    5.1557 C.ar      1 UNK         0.0000 
  18708 C(5)       73.2359  119.8278    5.6759 C.ar      1 UNK         0.0000 
  18709 C(6)       73.2412  118.4403    5.6846 C.ar      1 UNK         0.0000 
  18710 C(7)       71.2681  115.4074    5.1796 C.2       1 UNK         0.0000 
  18711 C(8)       71.7090  113.9733    5.3006 C.3       1 UNK         0.0000 
  18712 H(1)       70.2368  117.8668    4.2122 H         1 UNK         0.0000 
  18713 H(2)       70.2195  120.3176    4.1963 H         1 UNK         0.0000 
  18714 H(3)       74.0791  120.3771    6.0762 H         1 UNK         0.0000 
  18715 H(4)       74.0918  117.9068    6.0906 H         1 UNK         0.0000 
  18716 H(5)       72.9490  122.2597    5.3025 H         1 UNK         0.0000 
  18717 H(6)       73.1849  115.9492    5.3956 H         1 UNK         0.0000 
  18718 H(7)       71.6307  113.5102    4.3514 H         1 UNK         0.0000 
  18719 H(8)       72.7058  113.8751    5.6446 H         1 UNK         0.0000 
  18720 H(9)       71.0285  113.4556    5.9254 H         1 UNK         0.0000 
  18721 O(1)       69.3325  130.0927    6.2473 O.3       1 UNK         0.0000 
  18722 O(2)       67.3347  128.8526   12.2913 O.2       1 UNK         0.0000 
  18723 N(1)       69.5158  128.8020   11.6604 N.am      1 UNK         0.0000 
  18724 C(1)       69.4163  129.1609   10.2975 C.ar      1 UNK         0.0000 
  18725 C(2)       68.3342  129.8468    9.7463 C.ar      1 UNK         0.0000 
  18726 C(3)       68.3272  130.1555    8.3892 C.ar      1 UNK         0.0000 
  18727 C(4)       69.3972  129.7929    7.5752 C.ar      1 UNK         0.0000 
  18728 C(5)       70.4928  129.1345    8.1323 C.ar      1 UNK         0.0000 
  18729 C(6)       70.4981  128.8216    9.4841 C.ar      1 UNK         0.0000 
  18730 C(7)       68.5250  128.6491   12.5539 C.2       1 UNK         0.0000 
  18731 C(8)       68.9659  128.2165   13.9266 C.3       1 UNK         0.0000 
  18732 H(1)       67.4937  130.1324   10.3666 H         1 UNK         0.0000 
  18733 H(2)       67.4763  130.6854    7.9789 H         1 UNK         0.0000 
  18734 H(3)       71.3360  128.8644    7.5086 H         1 UNK         0.0000 
  18735 H(4)       71.3487  128.3085    9.9156 H         1 UNK         0.0000 
  18736 H(5)       70.2059  130.0322    5.8415 H         1 UNK         0.0000 
  18737 H(6)       70.4418  128.5572   11.9779 H         1 UNK         0.0000 
  18738 H(7)       68.8876  129.0410   14.5866 H         1 UNK         0.0000 
  18739 H(8)       69.9627  127.8594   13.9469 H         1 UNK         0.0000 
  18740 H(9)       68.2854  127.4934   14.2946 H         1 UNK         0.0000 
  18741 O(1)       73.6860  118.7712    9.4321 O.3       1 UNK         0.0000 
  18742 O(2)       75.6838  124.9400    9.5479 O.2       1 UNK         0.0000 
  18743 N(1)       73.5026  124.3356    9.3602 N.am      1 UNK         0.0000 
  18744 C(1)       73.6021  122.9271    9.4114 C.ar      1 UNK         0.0000 
  18745 C(2)       74.6842  122.2389    9.9597 C.ar      1 UNK         0.0000 
  18746 C(3)       74.6913  120.8471    9.9633 C.ar      1 UNK         0.0000 
  18747 C(4)       73.6212  120.1325    9.4309 C.ar      1 UNK         0.0000 
  18748 C(5)       72.5256  120.8204    8.9107 C.ar      1 UNK         0.0000 
  18749 C(6)       72.5203  122.2080    8.9020 C.ar      1 UNK         0.0000 
  18750 C(7)       74.4934  125.2409    9.4070 C.2       1 UNK         0.0000 
  18751 C(8)       74.0526  126.6750    9.2860 C.3       1 UNK         0.0000 
  18752 H(1)       75.5248  122.7814   10.3744 H         1 UNK         0.0000 
  18753 H(2)       75.5421  120.3306   10.3903 H         1 UNK         0.0000 
  18754 H(3)       71.6825  120.2712    8.5104 H         1 UNK         0.0000 
  18755 H(4)       71.6697  122.7415    8.4961 H         1 UNK         0.0000 
  18756 H(5)       72.8125  118.3886    9.2841 H         1 UNK         0.0000 
  18757 H(6)       72.5767  124.6990    9.1910 H         1 UNK         0.0000 
  18758 H(7)       74.1308  127.1381   10.2352 H         1 UNK         0.0000 
  18759 H(8)       73.0558  126.7731    8.9420 H         1 UNK         0.0000 
  18760 H(9)       74.7330  127.1927    8.6612 H         1 UNK         0.0000 
  18761 O(1)       63.8659  130.9689   15.5017 O.3       1 UNK         0.0000 
  18762 O(2)       65.8637  132.2090    9.4577 O.2       1 UNK         0.0000 
  18763 N(1)       63.6825  132.2596   10.0886 N.am      1 UNK         0.0000 
  18764 C(1)       63.7820  131.9007   11.4515 C.ar      1 UNK         0.0000 
  18765 C(2)       64.8641  131.2148   12.0027 C.ar      1 UNK         0.0000 
  18766 C(3)       64.8712  130.9060   13.3599 C.ar      1 UNK         0.0000 
  18767 C(4)       63.8011  131.2687   14.1738 C.ar      1 UNK         0.0000 
  18768 C(5)       62.7055  131.9271   13.6167 C.ar      1 UNK         0.0000 
  18769 C(6)       62.7002  132.2399   12.2649 C.ar      1 UNK         0.0000 
  18770 C(7)       64.6733  132.4124    9.1951 C.2       1 UNK         0.0000 
  18771 C(8)       64.2324  132.8451    7.8224 C.3       1 UNK         0.0000 
  18772 H(1)       65.7047  130.9291   11.3824 H         1 UNK         0.0000 
  18773 H(2)       65.7220  130.3761   13.7701 H         1 UNK         0.0000 
  18774 H(3)       61.8624  132.1972   14.2404 H         1 UNK         0.0000 
  18775 H(4)       61.8496  132.7530   11.8334 H         1 UNK         0.0000 
  18776 H(5)       62.9924  131.0294   15.9075 H         1 UNK         0.0000 
  18777 H(6)       62.7566  132.5043    9.7711 H         1 UNK         0.0000 
  18778 H(7)       64.3107  132.0206    7.1624 H         1 UNK         0.0000 
  18779 H(8)       63.2357  133.2022    7.8021 H         1 UNK         0.0000 
  18780 H(9)       64.9129  133.5682    7.4544 H         1 UNK         0.0000 
  18781 O(1)       64.9986  127.6080   12.3169 O.3       1 UNK         0.0000 
  18782 O(2)       63.0008  121.4393   12.2011 O.2       1 UNK         0.0000 
  18783 N(1)       65.1819  122.0437   12.3888 N.am      1 UNK         0.0000 
  18784 C(1)       65.0825  123.4521   12.3376 C.ar      1 UNK         0.0000 
  18785 C(2)       64.0003  124.1403   11.7893 C.ar      1 UNK         0.0000 
  18786 C(3)       63.9933  125.5321   11.7858 C.ar      1 UNK         0.0000 
  18787 C(4)       65.0633  126.2467   12.3181 C.ar      1 UNK         0.0000 
  18788 C(5)       66.1589  125.5588   12.8383 C.ar      1 UNK         0.0000 
  18789 C(6)       66.1642  124.1713   12.8470 C.ar      1 UNK         0.0000 
  18790 C(7)       64.1911  121.1383   12.3420 C.2       1 UNK         0.0000 
  18791 C(8)       64.6320  119.7042   12.4630 C.3       1 UNK         0.0000 
  18792 H(1)       63.1598  123.5978   11.3746 H         1 UNK         0.0000 
  18793 H(2)       63.1425  126.0486   11.3587 H         1 UNK         0.0000 
  18794 H(3)       67.0021  126.1081   13.2386 H         1 UNK         0.0000 
  18795 H(4)       67.0148  123.6378   13.2530 H         1 UNK         0.0000 
  18796 H(5)       65.8720  127.9906   12.4649 H         1 UNK         0.0000 
  18797 H(6)       66.1079  121.6802   12.5580 H         1 UNK         0.0000 
  18798 H(7)       64.5537  119.2411   11.5138 H         1 UNK         0.0000 
  18799 H(8)       65.6288  119.6061   12.8070 H         1 UNK         0.0000 
  18800 H(9)       63.9515  119.1866   13.0878 H         1 UNK         0.0000 
  18801 O(1)       69.3325  135.8236   13.4097 O.3       1 UNK         0.0000 
  18802 O(2)       67.3347  134.5836   19.4537 O.2       1 UNK         0.0000 
  18803 N(1)       69.5158  134.5329   18.8228 N.am      1 UNK         0.0000 
  18804 C(1)       69.4163  134.8918   17.4599 C.ar      1 UNK         0.0000 
  18805 C(2)       68.3342  135.5777   16.9087 C.ar      1 UNK         0.0000 
  18806 C(3)       68.3272  135.8865   15.5516 C.ar      1 UNK         0.0000 
  18807 C(4)       69.3972  135.5238   14.7376 C.ar      1 UNK         0.0000 
  18808 C(5)       70.4928  134.8654   15.2947 C.ar      1 UNK         0.0000 
  18809 C(6)       70.4981  134.5526   16.6465 C.ar      1 UNK         0.0000 
  18810 C(7)       68.5250  134.3801   19.7163 C.2       1 UNK         0.0000 
  18811 C(8)       68.9659  133.9475   21.0890 C.3       1 UNK         0.0000 
  18812 H(1)       67.4937  135.8634   17.5290 H         1 UNK         0.0000 
  18813 H(2)       67.4763  136.4164   15.1413 H         1 UNK         0.0000 
  18814 H(3)       71.3360  134.5954   14.6710 H         1 UNK         0.0000 
  18815 H(4)       71.3487  134.0395   17.0780 H         1 UNK         0.0000 
  18816 H(5)       70.2059  135.7631   13.0039 H         1 UNK         0.0000 
  18817 H(6)       70.4418  134.2882   19.1403 H         1 UNK         0.0000 
  18818 H(7)       68.8876  134.7719   21.7490 H         1 UNK         0.0000 
  18819 H(8)       69.9627  133.5903   21.1093 H         1 UNK         0.0000 
  18820 H(9)       68.2854  133.2244   21.4570 H         1 UNK         0.0000 
  18821 O(1)       73.6860  124.5021   16.5945 O.3       1 UNK         0.0000 
  18822 O(2)       75.6838  130.6709   16.7103 O.2       1 UNK         0.0000 
  18823 N(1)       73.5026  130.0665   16.5226 N.am      1 UNK         0.0000 
  18824 C(1)       73.6021  128.6581   16.5738 C.ar      1 UNK         0.0000 
  18825 C(2)       74.6842  127.9699   17.1221 C.ar      1 UNK         0.0000 
  18826 C(3)       74.6913  126.5781   17.1257 C.ar      1 UNK         0.0000 
  18827 C(4)       73.6212  125.8635   16.5933 C.ar      1 UNK         0.0000 
  18828 C(5)       72.5256  126.5514   16.0731 C.ar      1 UNK         0.0000 
  18829 C(6)       72.5203  127.9389   16.0644 C.ar      1 UNK         0.0000 
  18830 C(7)       74.4934  130.9718   16.5694 C.2       1 UNK         0.0000 
  18831 C(8)       74.0526  132.4060   16.4484 C.3       1 UNK         0.0000 
  18832 H(1)       75.5248  128.5124   17.5368 H         1 UNK         0.0000 
  18833 H(2)       75.5421  126.0616   17.5527 H         1 UNK         0.0000 
  18834 H(3)       71.6825  126.0021   15.6728 H         1 UNK         0.0000 
  18835 H(4)       71.6697  128.4724   15.6585 H         1 UNK         0.0000 
  18836 H(5)       72.8125  124.1195   16.4465 H         1 UNK         0.0000 
  18837 H(6)       72.5767  130.4300   16.3534 H         1 UNK         0.0000 
  18838 H(7)       74.1308  132.8691   17.3976 H         1 UNK         0.0000 
  18839 H(8)       73.0558  132.5041   16.1044 H         1 UNK         0.0000 
  18840 H(9)       74.7330  132.9236   15.8236 H         1 UNK         0.0000 
  18841 O(1)       69.3521  122.0175   22.6641 O.3       1 UNK         0.0000 
  18842 O(2)       71.3499  123.2576   16.6201 O.2       1 UNK         0.0000 
  18843 N(1)       69.1687  123.3082   17.2510 N.am      1 UNK         0.0000 
  18844 C(1)       69.2682  122.9493   18.6139 C.ar      1 UNK         0.0000 
  18845 C(2)       70.3503  122.2634   19.1651 C.ar      1 UNK         0.0000 
  18846 C(3)       70.3574  121.9547   20.5223 C.ar      1 UNK         0.0000 
  18847 C(4)       69.2874  122.3173   21.3362 C.ar      1 UNK         0.0000 
  18848 C(5)       68.1917  122.9757   20.7791 C.ar      1 UNK         0.0000 
  18849 C(6)       68.1864  123.2886   19.4273 C.ar      1 UNK         0.0000 
  18850 C(7)       70.1595  123.4611   16.3575 C.2       1 UNK         0.0000 
  18851 C(8)       69.7187  123.8937   14.9848 C.3       1 UNK         0.0000 
  18852 H(1)       71.1909  121.9778   18.5448 H         1 UNK         0.0000 
  18853 H(2)       71.2082  121.4248   20.9325 H         1 UNK         0.0000 
  18854 H(3)       67.3486  123.2458   21.4028 H         1 UNK         0.0000 
  18855 H(4)       67.3358  123.8016   18.9958 H         1 UNK         0.0000 
  18856 H(5)       68.4786  122.0780   23.0699 H         1 UNK         0.0000 
  18857 H(6)       68.2428  123.5530   16.9335 H         1 UNK         0.0000 
  18858 H(7)       69.7969  123.0692   14.3248 H         1 UNK         0.0000 
  18859 H(8)       68.7219  124.2508   14.9645 H         1 UNK         0.0000 
  18860 H(9)       70.3991  124.6168   14.6168 H         1 UNK         0.0000 
  18861 O(1)       72.0756  133.3390   19.4793 O.3       1 UNK         0.0000 
  18862 O(2)       70.0778  127.1702   19.3635 O.2       1 UNK         0.0000 
  18863 N(1)       72.2589  127.7746   19.5512 N.am      1 UNK         0.0000 
  18864 C(1)       72.1595  129.1831   19.5000 C.ar      1 UNK         0.0000 
  18865 C(2)       71.0773  129.8713   18.9517 C.ar      1 UNK         0.0000 
  18866 C(3)       71.0703  131.2631   18.9482 C.ar      1 UNK         0.0000 
  18867 C(4)       72.1403  131.9777   19.4805 C.ar      1 UNK         0.0000 
  18868 C(5)       73.2359  131.2898   20.0007 C.ar      1 UNK         0.0000 
  18869 C(6)       73.2412  129.9022   20.0094 C.ar      1 UNK         0.0000 
  18870 C(7)       71.2681  126.8693   19.5044 C.2       1 UNK         0.0000 
  18871 C(8)       71.7090  125.4352   19.6254 C.3       1 UNK         0.0000 
  18872 H(1)       70.2368  129.3287   18.5370 H         1 UNK         0.0000 
  18873 H(2)       70.2195  131.7796   18.5211 H         1 UNK         0.0000 
  18874 H(3)       74.0791  131.8390   20.4010 H         1 UNK         0.0000 
  18875 H(4)       74.0918  129.3687   20.4154 H         1 UNK         0.0000 
  18876 H(5)       72.9490  133.7216   19.6273 H         1 UNK         0.0000 
  18877 H(6)       73.1849  127.4112   19.7204 H         1 UNK         0.0000 
  18878 H(7)       71.6307  124.9721   18.6762 H         1 UNK         0.0000 
  18879 H(8)       72.7058  125.3370   19.9694 H         1 UNK         0.0000 
  18880 H(9)       71.0285  124.9175   20.2502 H         1 UNK         0.0000 
  18881 O(1)       67.7417  126.8723   20.5721 O.3       1 UNK         0.0000 
  18882 O(2)       65.7439  125.6322   26.6161 O.2       1 UNK         0.0000 
  18883 N(1)       67.9250  125.5816   25.9852 N.am      1 UNK         0.0000 
  18884 C(1)       67.8256  125.9405   24.6223 C.ar      1 UNK         0.0000 
  18885 C(2)       66.7434  126.6264   24.0711 C.ar      1 UNK         0.0000 
  18886 C(3)       66.7364  126.9351   22.7140 C.ar      1 UNK         0.0000 
  18887 C(4)       67.8064  126.5725   21.9000 C.ar      1 UNK         0.0000 
  18888 C(5)       68.9020  125.9141   22.4571 C.ar      1 UNK         0.0000 
  18889 C(6)       68.9073  125.6012   23.8089 C.ar      1 UNK         0.0000 
  18890 C(7)       66.9342  125.4287   26.8787 C.2       1 UNK         0.0000 
  18891 C(8)       67.3751  124.9961   28.2514 C.3       1 UNK         0.0000 
  18892 H(1)       65.9029  126.9120   24.6914 H         1 UNK         0.0000 
  18893 H(2)       65.8856  127.4650   22.3037 H         1 UNK         0.0000 
  18894 H(3)       69.7452  125.6440   21.8334 H         1 UNK         0.0000 
  18895 H(4)       69.7579  125.0881   24.2404 H         1 UNK         0.0000 
  18896 H(5)       68.6151  126.8118   20.1663 H         1 UNK         0.0000 
  18897 H(6)       68.8510  125.3368   26.3027 H         1 UNK         0.0000 
  18898 H(7)       67.2968  125.8206   28.9114 H         1 UNK         0.0000 
  18899 H(8)       68.3719  124.6390   28.2717 H         1 UNK         0.0000 
  18900 H(9)       66.6946  124.2730   28.6194 H         1 UNK         0.0000 
  18901 O(1)       66.6090  130.2331   23.7569 O.3       1 UNK         0.0000 
  18902 O(2)       68.6068  136.4019   23.8727 O.2       1 UNK         0.0000 
  18903 N(1)       66.4256  135.7975   23.6850 N.am      1 UNK         0.0000 
  18904 C(1)       66.5251  134.3890   23.7362 C.ar      1 UNK         0.0000 
  18905 C(2)       67.6072  133.7008   24.2845 C.ar      1 UNK         0.0000 
  18906 C(3)       67.6143  132.3090   24.2881 C.ar      1 UNK         0.0000 
  18907 C(4)       66.5442  131.5944   23.7557 C.ar      1 UNK         0.0000 
  18908 C(5)       65.4486  132.2823   23.2355 C.ar      1 UNK         0.0000 
  18909 C(6)       65.4433  133.6699   23.2268 C.ar      1 UNK         0.0000 
  18910 C(7)       67.4164  136.7028   23.7318 C.2       1 UNK         0.0000 
  18911 C(8)       66.9756  138.1369   23.6108 C.3       1 UNK         0.0000 
  18912 H(1)       68.4478  134.2434   24.6992 H         1 UNK         0.0000 
  18913 H(2)       68.4651  131.7926   24.7151 H         1 UNK         0.0000 
  18914 H(3)       64.6055  131.7331   22.8352 H         1 UNK         0.0000 
  18915 H(4)       64.5927  134.2034   22.8209 H         1 UNK         0.0000 
  18916 H(5)       65.7355  129.8505   23.6089 H         1 UNK         0.0000 
  18917 H(6)       65.4997  136.1610   23.5158 H         1 UNK         0.0000 
  18918 H(7)       67.0538  138.6000   24.5600 H         1 UNK         0.0000 
  18919 H(8)       65.9788  138.2351   23.2668 H         1 UNK         0.0000 
  18920 H(9)       67.6560  138.6546   22.9860 H         1 UNK         0.0000 
  18921 O(1)       70.9429  125.2379    8.3393 O.3       1 UNK         0.0000 
  18922 O(2)       72.9407  126.4780    2.2953 O.2       1 UNK         0.0000 
  18923 N(1)       70.7595  126.5286    2.9262 N.am      1 UNK         0.0000 
  18924 C(1)       70.8590  126.1697    4.2891 C.ar      1 UNK         0.0000 
  18925 C(2)       71.9411  125.4838    4.8403 C.ar      1 UNK         0.0000 
  18926 C(3)       71.9482  125.1751    6.1975 C.ar      1 UNK         0.0000 
  18927 C(4)       70.8781  125.5377    7.0114 C.ar      1 UNK         0.0000 
  18928 C(5)       69.7825  126.1961    6.4543 C.ar      1 UNK         0.0000 
  18929 C(6)       69.7772  126.5090    5.1025 C.ar      1 UNK         0.0000 
  18930 C(7)       71.7503  126.6815    2.0327 C.2       1 UNK         0.0000 
  18931 C(8)       71.3094  127.1141    0.6600 C.3       1 UNK         0.0000 
  18932 H(1)       72.7817  125.1982    4.2200 H         1 UNK         0.0000 
  18933 H(2)       72.7990  124.6452    6.6077 H         1 UNK         0.0000 
  18934 H(3)       68.9394  126.4662    7.0780 H         1 UNK         0.0000 
  18935 H(4)       68.9266  127.0220    4.6710 H         1 UNK         0.0000 
  18936 H(5)       70.0694  125.2984    8.7451 H         1 UNK         0.0000 
  18937 H(6)       69.8336  126.7734    2.6087 H         1 UNK         0.0000 
  18938 H(7)       71.3877  126.2896    0.0000 H         1 UNK         0.0000 
  18939 H(8)       70.3127  127.4712    0.6397 H         1 UNK         0.0000 
  18940 H(9)       71.9899  127.8372    0.2920 H         1 UNK         0.0000 
  18941 O(1)       73.6664  136.5594    5.1545 O.3       1 UNK         0.0000 
  18942 O(2)       71.6685  130.3906    5.0387 O.2       1 UNK         0.0000 
  18943 N(1)       73.8497  130.9950    5.2264 N.am      1 UNK         0.0000 
  18944 C(1)       73.7502  132.4035    5.1752 C.ar      1 UNK         0.0000 
  18945 C(2)       72.6681  133.0917    4.6269 C.ar      1 UNK         0.0000 
  18946 C(3)       72.6610  134.4835    4.6234 C.ar      1 UNK         0.0000 
  18947 C(4)       73.7311  135.1981    5.1557 C.ar      1 UNK         0.0000 
  18948 C(5)       74.8267  134.5102    5.6759 C.ar      1 UNK         0.0000 
  18949 C(6)       74.8320  133.1226    5.6846 C.ar      1 UNK         0.0000 
  18950 C(7)       72.8589  130.0897    5.1796 C.2       1 UNK         0.0000 
  18951 C(8)       73.2998  128.6556    5.3006 C.3       1 UNK         0.0000 
  18952 H(1)       71.8275  132.5491    4.2122 H         1 UNK         0.0000 
  18953 H(2)       71.8102  135.0000    4.1963 H         1 UNK         0.0000 
  18954 H(3)       75.6698  135.0594    6.0762 H         1 UNK         0.0000 
  18955 H(4)       75.6826  132.5891    6.0906 H         1 UNK         0.0000 
  18956 H(5)       74.5398  136.9420    5.3025 H         1 UNK         0.0000 
  18957 H(6)       74.7757  130.6316    5.3956 H         1 UNK         0.0000 
  18958 H(7)       73.2215  128.1925    4.3514 H         1 UNK         0.0000 
  18959 H(8)       74.2965  128.5574    5.6446 H         1 UNK         0.0000 
  18960 H(9)       72.6193  128.1379    5.9254 H         1 UNK         0.0000 
  18961 O(1)       70.9233  144.7750    6.2473 O.3       1 UNK         0.0000 
  18962 O(2)       68.9254  143.5349   12.2913 O.2       1 UNK         0.0000 
  18963 N(1)       71.1066  143.4843   11.6604 N.am      1 UNK         0.0000 
  18964 C(1)       71.0071  143.8432   10.2975 C.ar      1 UNK         0.0000 
  18965 C(2)       69.9250  144.5291    9.7463 C.ar      1 UNK         0.0000 
  18966 C(3)       69.9179  144.8378    8.3892 C.ar      1 UNK         0.0000 
  18967 C(4)       70.9880  144.4752    7.5752 C.ar      1 UNK         0.0000 
  18968 C(5)       72.0836  143.8168    8.1323 C.ar      1 UNK         0.0000 
  18969 C(6)       72.0889  143.5039    9.4841 C.ar      1 UNK         0.0000 
  18970 C(7)       70.1158  143.3315   12.5539 C.2       1 UNK         0.0000 
  18971 C(8)       70.5567  142.8988   13.9266 C.3       1 UNK         0.0000 
  18972 H(1)       69.0844  144.8147   10.3666 H         1 UNK         0.0000 
  18973 H(2)       69.0671  145.3678    7.9789 H         1 UNK         0.0000 
  18974 H(3)       72.9267  143.5467    7.5086 H         1 UNK         0.0000 
  18975 H(4)       72.9395  142.9909    9.9156 H         1 UNK         0.0000 
  18976 H(5)       71.7967  144.7145    5.8415 H         1 UNK         0.0000 
  18977 H(6)       72.0325  143.2395   11.9779 H         1 UNK         0.0000 
  18978 H(7)       70.4784  143.7233   14.5866 H         1 UNK         0.0000 
  18979 H(8)       71.5534  142.5417   13.9469 H         1 UNK         0.0000 
  18980 H(9)       69.8762  142.1757   14.2946 H         1 UNK         0.0000 
  18981 O(1)       75.2767  133.4535    9.4321 O.3       1 UNK         0.0000 
  18982 O(2)       77.2746  139.6223    9.5479 O.2       1 UNK         0.0000 
  18983 N(1)       75.0934  139.0179    9.3602 N.am      1 UNK         0.0000 
  18984 C(1)       75.1929  137.6094    9.4114 C.ar      1 UNK         0.0000 
  18985 C(2)       76.2750  136.9212    9.9597 C.ar      1 UNK         0.0000 
  18986 C(3)       76.2821  135.5294    9.9633 C.ar      1 UNK         0.0000 
  18987 C(4)       75.2120  134.8148    9.4309 C.ar      1 UNK         0.0000 
  18988 C(5)       74.1164  135.5027    8.9107 C.ar      1 UNK         0.0000 
  18989 C(6)       74.1111  136.8903    8.9020 C.ar      1 UNK         0.0000 
  18990 C(7)       76.0842  139.9232    9.4070 C.2       1 UNK         0.0000 
  18991 C(8)       75.6433  141.3573    9.2860 C.3       1 UNK         0.0000 
  18992 H(1)       77.1156  137.4638   10.3744 H         1 UNK         0.0000 
  18993 H(2)       77.1329  135.0130   10.3903 H         1 UNK         0.0000 
  18994 H(3)       73.2733  134.9535    8.5104 H         1 UNK         0.0000 
  18995 H(4)       73.2605  137.4238    8.4961 H         1 UNK         0.0000 
  18996 H(5)       74.4033  133.0709    9.2841 H         1 UNK         0.0000 
  18997 H(6)       74.1675  139.3814    9.1910 H         1 UNK         0.0000 
  18998 H(7)       75.7216  141.8204   10.2352 H         1 UNK         0.0000 
  18999 H(8)       74.6466  141.4555    8.9420 H         1 UNK         0.0000 
  19000 H(9)       76.3238  141.8750    8.6612 H         1 UNK         0.0000 
  19001 O(1)       65.4566  145.6512   15.5017 O.3       1 UNK         0.0000 
  19002 O(2)       67.4545  146.8913    9.4577 O.2       1 UNK         0.0000 
  19003 N(1)       65.2733  146.9419   10.0886 N.am      1 UNK         0.0000 
  19004 C(1)       65.3728  146.5830   11.4515 C.ar      1 UNK         0.0000 
  19005 C(2)       66.4549  145.8971   12.0027 C.ar      1 UNK         0.0000 
  19006 C(3)       66.4620  145.5884   13.3599 C.ar      1 UNK         0.0000 
  19007 C(4)       65.3919  145.9510   14.1738 C.ar      1 UNK         0.0000 
  19008 C(5)       64.2963  146.6094   13.6167 C.ar      1 UNK         0.0000 
  19009 C(6)       64.2910  146.9223   12.2649 C.ar      1 UNK         0.0000 
  19010 C(7)       66.2641  147.0948    9.1951 C.2       1 UNK         0.0000 
  19011 C(8)       65.8232  147.5274    7.8224 C.3       1 UNK         0.0000 
  19012 H(1)       67.2955  145.6115   11.3824 H         1 UNK         0.0000 
  19013 H(2)       67.3128  145.0585   13.7701 H         1 UNK         0.0000 
  19014 H(3)       63.4531  146.8795   14.2404 H         1 UNK         0.0000 
  19015 H(4)       63.4404  147.4353   11.8334 H         1 UNK         0.0000 
  19016 H(5)       64.5832  145.7117   15.9075 H         1 UNK         0.0000 
  19017 H(6)       64.3473  147.1867    9.7711 H         1 UNK         0.0000 
  19018 H(7)       65.9015  146.7029    7.1624 H         1 UNK         0.0000 
  19019 H(8)       64.8264  147.8845    7.8021 H         1 UNK         0.0000 
  19020 H(9)       66.5037  148.2505    7.4544 H         1 UNK         0.0000 
  19021 O(1)       66.5894  142.2904   12.3169 O.3       1 UNK         0.0000 
  19022 O(2)       64.5915  136.1216   12.2011 O.2       1 UNK         0.0000 
  19023 N(1)       66.7727  136.7260   12.3888 N.am      1 UNK         0.0000 
  19024 C(1)       66.6732  138.1344   12.3376 C.ar      1 UNK         0.0000 
  19025 C(2)       65.5911  138.8226   11.7893 C.ar      1 UNK         0.0000 
  19026 C(3)       65.5840  140.2145   11.7858 C.ar      1 UNK         0.0000 
  19027 C(4)       66.6541  140.9291   12.3181 C.ar      1 UNK         0.0000 
  19028 C(5)       67.7497  140.2411   12.8383 C.ar      1 UNK         0.0000 
  19029 C(6)       67.7550  138.8536   12.8470 C.ar      1 UNK         0.0000 
  19030 C(7)       65.7819  135.8207   12.3420 C.2       1 UNK         0.0000 
  19031 C(8)       66.2228  134.3866   12.4630 C.3       1 UNK         0.0000 
  19032 H(1)       64.7505  138.2801   11.3746 H         1 UNK         0.0000 
  19033 H(2)       64.7332  140.7309   11.3587 H         1 UNK         0.0000 
  19034 H(3)       68.5928  140.7904   13.2386 H         1 UNK         0.0000 
  19035 H(4)       68.6056  138.3201   13.2530 H         1 UNK         0.0000 
  19036 H(5)       67.4628  142.6730   12.4649 H         1 UNK         0.0000 
  19037 H(6)       67.6987  136.3625   12.5580 H         1 UNK         0.0000 
  19038 H(7)       66.1445  133.9235   11.5138 H         1 UNK         0.0000 
  19039 H(8)       67.2195  134.2884   12.8070 H         1 UNK         0.0000 
  19040 H(9)       65.5423  133.8689   13.0878 H         1 UNK         0.0000 
  19041 O(1)       70.9233  150.5060   13.4097 O.3       1 UNK         0.0000 
  19042 O(2)       68.9254  149.2659   19.4537 O.2       1 UNK         0.0000 
  19043 N(1)       71.1066  149.2153   18.8228 N.am      1 UNK         0.0000 
  19044 C(1)       71.0071  149.5742   17.4599 C.ar      1 UNK         0.0000 
  19045 C(2)       69.9250  150.2601   16.9087 C.ar      1 UNK         0.0000 
  19046 C(3)       69.9179  150.5688   15.5516 C.ar      1 UNK         0.0000 
  19047 C(4)       70.9880  150.2062   14.7376 C.ar      1 UNK         0.0000 
  19048 C(5)       72.0836  149.5478   15.2947 C.ar      1 UNK         0.0000 
  19049 C(6)       72.0889  149.2349   16.6465 C.ar      1 UNK         0.0000 
  19050 C(7)       70.1158  149.0624   19.7163 C.2       1 UNK         0.0000 
  19051 C(8)       70.5567  148.6298   21.0890 C.3       1 UNK         0.0000 
  19052 H(1)       69.0844  150.5457   17.5290 H         1 UNK         0.0000 
  19053 H(2)       69.0671  151.0987   15.1413 H         1 UNK         0.0000 
  19054 H(3)       72.9267  149.2777   14.6710 H         1 UNK         0.0000 
  19055 H(4)       72.9395  148.7218   17.0780 H         1 UNK         0.0000 
  19056 H(5)       71.7967  150.4455   13.0039 H         1 UNK         0.0000 
  19057 H(6)       72.0325  148.9705   19.1403 H         1 UNK         0.0000 
  19058 H(7)       70.4784  149.4542   21.7490 H         1 UNK         0.0000 
  19059 H(8)       71.5534  148.2727   21.1093 H         1 UNK         0.0000 
  19060 H(9)       69.8762  147.9067   21.4570 H         1 UNK         0.0000 
  19061 O(1)       75.2767  139.1845   16.5945 O.3       1 UNK         0.0000 
  19062 O(2)       77.2746  145.3533   16.7103 O.2       1 UNK         0.0000 
  19063 N(1)       75.0934  144.7489   16.5226 N.am      1 UNK         0.0000 
  19064 C(1)       75.1929  143.3404   16.5738 C.ar      1 UNK         0.0000 
  19065 C(2)       76.2750  142.6522   17.1221 C.ar      1 UNK         0.0000 
  19066 C(3)       76.2821  141.2604   17.1257 C.ar      1 UNK         0.0000 
  19067 C(4)       75.2120  140.5458   16.5933 C.ar      1 UNK         0.0000 
  19068 C(5)       74.1164  141.2337   16.0731 C.ar      1 UNK         0.0000 
  19069 C(6)       74.1111  142.6212   16.0644 C.ar      1 UNK         0.0000 
  19070 C(7)       76.0842  145.6542   16.5694 C.2       1 UNK         0.0000 
  19071 C(8)       75.6433  147.0883   16.4484 C.3       1 UNK         0.0000 
  19072 H(1)       77.1156  143.1947   17.5368 H         1 UNK         0.0000 
  19073 H(2)       77.1329  140.7439   17.5527 H         1 UNK         0.0000 
  19074 H(3)       73.2733  140.6845   15.6728 H         1 UNK         0.0000 
  19075 H(4)       73.2605  143.1548   15.6585 H         1 UNK         0.0000 
  19076 H(5)       74.4033  138.8019   16.4465 H         1 UNK         0.0000 
  19077 H(6)       74.1675  145.1123   16.3534 H         1 UNK         0.0000 
  19078 H(7)       75.7216  147.5514   17.3976 H         1 UNK         0.0000 
  19079 H(8)       74.6466  147.1864   16.1044 H         1 UNK         0.0000 
  19080 H(9)       76.3238  147.6060   15.8236 H         1 UNK         0.0000 
  19081 O(1)       70.9429  136.6998   22.6641 O.3       1 UNK         0.0000 
  19082 O(2)       72.9407  137.9399   16.6201 O.2       1 UNK         0.0000 
  19083 N(1)       70.7595  137.9906   17.2510 N.am      1 UNK         0.0000 
  19084 C(1)       70.8590  137.6316   18.6139 C.ar      1 UNK         0.0000 
  19085 C(2)       71.9411  136.9458   19.1651 C.ar      1 UNK         0.0000 
  19086 C(3)       71.9482  136.6370   20.5223 C.ar      1 UNK         0.0000 
  19087 C(4)       70.8781  136.9997   21.3362 C.ar      1 UNK         0.0000 
  19088 C(5)       69.7825  137.6580   20.7791 C.ar      1 UNK         0.0000 
  19089 C(6)       69.7772  137.9709   19.4273 C.ar      1 UNK         0.0000 
  19090 C(7)       71.7503  138.1434   16.3575 C.2       1 UNK         0.0000 
  19091 C(8)       71.3094  138.5760   14.9848 C.3       1 UNK         0.0000 
  19092 H(1)       72.7817  136.6601   18.5448 H         1 UNK         0.0000 
  19093 H(2)       72.7990  136.1071   20.9325 H         1 UNK         0.0000 
  19094 H(3)       68.9394  137.9281   21.4028 H         1 UNK         0.0000 
  19095 H(4)       68.9266  138.4840   18.9958 H         1 UNK         0.0000 
  19096 H(5)       70.0694  136.7604   23.0699 H         1 UNK         0.0000 
  19097 H(6)       69.8336  138.2353   16.9335 H         1 UNK         0.0000 
  19098 H(7)       71.3877  137.7516   14.3248 H         1 UNK         0.0000 
  19099 H(8)       70.3127  138.9332   14.9645 H         1 UNK         0.0000 
  19100 H(9)       71.9899  139.2991   14.6168 H         1 UNK         0.0000 
  19101 O(1)       73.6664  148.0213   19.4793 O.3       1 UNK         0.0000 
  19102 O(2)       71.6685  141.8526   19.3635 O.2       1 UNK         0.0000 
  19103 N(1)       73.8497  142.4570   19.5512 N.am      1 UNK         0.0000 
  19104 C(1)       73.7502  143.8654   19.5000 C.ar      1 UNK         0.0000 
  19105 C(2)       72.6681  144.5536   18.9517 C.ar      1 UNK         0.0000 
  19106 C(3)       72.6610  145.9454   18.9482 C.ar      1 UNK         0.0000 
  19107 C(4)       73.7311  146.6600   19.4805 C.ar      1 UNK         0.0000 
  19108 C(5)       74.8267  145.9721   20.0007 C.ar      1 UNK         0.0000 
  19109 C(6)       74.8320  144.5846   20.0094 C.ar      1 UNK         0.0000 
  19110 C(7)       72.8589  141.5516   19.5044 C.2       1 UNK         0.0000 
  19111 C(8)       73.2998  140.1175   19.6254 C.3       1 UNK         0.0000 
  19112 H(1)       71.8275  144.0111   18.5370 H         1 UNK         0.0000 
  19113 H(2)       71.8102  146.4619   18.5211 H         1 UNK         0.0000 
  19114 H(3)       75.6698  146.5214   20.4010 H         1 UNK         0.0000 
  19115 H(4)       75.6826  144.0510   20.4154 H         1 UNK         0.0000 
  19116 H(5)       74.5398  148.4039   19.6273 H         1 UNK         0.0000 
  19117 H(6)       74.7757  142.0935   19.7204 H         1 UNK         0.0000 
  19118 H(7)       73.2215  139.6544   18.6762 H         1 UNK         0.0000 
  19119 H(8)       74.2965  140.0194   19.9694 H         1 UNK         0.0000 
  19120 H(9)       72.6193  139.5998   20.2502 H         1 UNK         0.0000 
  19121 O(1)       69.3325  141.5546   20.5721 O.3       1 UNK         0.0000 
  19122 O(2)       67.3347  140.3145   26.6161 O.2       1 UNK         0.0000 
  19123 N(1)       69.5158  140.2639   25.9852 N.am      1 UNK         0.0000 
  19124 C(1)       69.4163  140.6228   24.6223 C.ar      1 UNK         0.0000 
  19125 C(2)       68.3342  141.3087   24.0711 C.ar      1 UNK         0.0000 
  19126 C(3)       68.3272  141.6174   22.7140 C.ar      1 UNK         0.0000 
  19127 C(4)       69.3972  141.2548   21.9000 C.ar      1 UNK         0.0000 
  19128 C(5)       70.4928  140.5964   22.4571 C.ar      1 UNK         0.0000 
  19129 C(6)       70.4981  140.2835   23.8089 C.ar      1 UNK         0.0000 
  19130 C(7)       68.5250  140.1111   26.8787 C.2       1 UNK         0.0000 
  19131 C(8)       68.9659  139.6784   28.2514 C.3       1 UNK         0.0000 
  19132 H(1)       67.4937  141.5943   24.6914 H         1 UNK         0.0000 
  19133 H(2)       67.4763  142.1474   22.3037 H         1 UNK         0.0000 
  19134 H(3)       71.3360  140.3263   21.8334 H         1 UNK         0.0000 
  19135 H(4)       71.3487  139.7705   24.2404 H         1 UNK         0.0000 
  19136 H(5)       70.2059  141.4941   20.1663 H         1 UNK         0.0000 
  19137 H(6)       70.4418  140.0191   26.3027 H         1 UNK         0.0000 
  19138 H(7)       68.8876  140.5029   28.9114 H         1 UNK         0.0000 
  19139 H(8)       69.9627  139.3213   28.2717 H         1 UNK         0.0000 
  19140 H(9)       68.2854  138.9553   28.6194 H         1 UNK         0.0000 
  19141 O(1)       68.1997  144.9154   23.7569 O.3       1 UNK         0.0000 
  19142 O(2)       70.1976  151.0842   23.8727 O.2       1 UNK         0.0000 
  19143 N(1)       68.0164  150.4798   23.6850 N.am      1 UNK         0.0000 
  19144 C(1)       68.1159  149.0714   23.7362 C.ar      1 UNK         0.0000 
  19145 C(2)       69.1980  148.3832   24.2845 C.ar      1 UNK         0.0000 
  19146 C(3)       69.2051  146.9914   24.2881 C.ar      1 UNK         0.0000 
  19147 C(4)       68.1350  146.2767   23.7557 C.ar      1 UNK         0.0000 
  19148 C(5)       67.0394  146.9647   23.2355 C.ar      1 UNK         0.0000 
  19149 C(6)       67.0341  148.3522   23.2268 C.ar      1 UNK         0.0000 
  19150 C(7)       69.0072  151.3851   23.7318 C.2       1 UNK         0.0000 
  19151 C(8)       68.5663  152.8193   23.6108 C.3       1 UNK         0.0000 
  19152 H(1)       70.0386  148.9257   24.6992 H         1 UNK         0.0000 
  19153 H(2)       70.0559  146.4749   24.7151 H         1 UNK         0.0000 
  19154 H(3)       66.1963  146.4154   22.8352 H         1 UNK         0.0000 
  19155 H(4)       66.1835  148.8857   22.8209 H         1 UNK         0.0000 
  19156 H(5)       67.3263  144.5328   23.6089 H         1 UNK         0.0000 
  19157 H(6)       67.0905  150.8433   23.5158 H         1 UNK         0.0000 
  19158 H(7)       68.6446  153.2824   24.5600 H         1 UNK         0.0000 
  19159 H(8)       67.5696  152.9174   23.2668 H         1 UNK         0.0000 
  19160 H(9)       69.2468  153.3369   22.9860 H         1 UNK         0.0000 
  19161 O(1)       72.5336  139.9202    8.3393 O.3       1 UNK         0.0000 
  19162 O(2)       74.5315  141.1603    2.2953 O.2       1 UNK         0.0000 
  19163 N(1)       72.3503  141.2110    2.9262 N.am      1 UNK         0.0000 
  19164 C(1)       72.4498  140.8520    4.2891 C.ar      1 UNK         0.0000 
  19165 C(2)       73.5319  140.1662    4.8403 C.ar      1 UNK         0.0000 
  19166 C(3)       73.5390  139.8574    6.1975 C.ar      1 UNK         0.0000 
  19167 C(4)       72.4689  140.2201    7.0114 C.ar      1 UNK         0.0000 
  19168 C(5)       71.3733  140.8784    6.4543 C.ar      1 UNK         0.0000 
  19169 C(6)       71.3680  141.1913    5.1025 C.ar      1 UNK         0.0000 
  19170 C(7)       73.3411  141.3638    2.0327 C.2       1 UNK         0.0000 
  19171 C(8)       72.9002  141.7964    0.6600 C.3       1 UNK         0.0000 
  19172 H(1)       74.3725  139.8805    4.2200 H         1 UNK         0.0000 
  19173 H(2)       74.3898  139.3275    6.6077 H         1 UNK         0.0000 
  19174 H(3)       70.5301  141.1485    7.0780 H         1 UNK         0.0000 
  19175 H(4)       70.5174  141.7044    4.6710 H         1 UNK         0.0000 
  19176 H(5)       71.6602  139.9808    8.7451 H         1 UNK         0.0000 
  19177 H(6)       71.4243  141.4557    2.6087 H         1 UNK         0.0000 
  19178 H(7)       72.9785  140.9720    0.0000 H         1 UNK         0.0000 
  19179 H(8)       71.9034  142.1536    0.6397 H         1 UNK         0.0000 
  19180 H(9)       73.5807  142.5195    0.2920 H         1 UNK         0.0000 
  19181 O(1)       75.2571  151.2417    5.1545 O.3       1 UNK         0.0000 
  19182 O(2)       73.2593  145.0729    5.0387 O.2       1 UNK         0.0000 
  19183 N(1)       75.4405  145.6774    5.2264 N.am      1 UNK         0.0000 
  19184 C(1)       75.3410  147.0858    5.1752 C.ar      1 UNK         0.0000 
  19185 C(2)       74.2589  147.7740    4.6269 C.ar      1 UNK         0.0000 
  19186 C(3)       74.2518  149.1658    4.6234 C.ar      1 UNK         0.0000 
  19187 C(4)       75.3219  149.8804    5.1557 C.ar      1 UNK         0.0000 
  19188 C(5)       76.4175  149.1925    5.6759 C.ar      1 UNK         0.0000 
  19189 C(6)       76.4228  147.8050    5.6846 C.ar      1 UNK         0.0000 
  19190 C(7)       74.4497  144.7720    5.1796 C.2       1 UNK         0.0000 
  19191 C(8)       74.8906  143.3379    5.3006 C.3       1 UNK         0.0000 
  19192 H(1)       73.4183  147.2315    4.2122 H         1 UNK         0.0000 
  19193 H(2)       73.4010  149.6823    4.1963 H         1 UNK         0.0000 
  19194 H(3)       77.2606  149.7418    6.0762 H         1 UNK         0.0000 
  19195 H(4)       77.2734  147.2714    6.0906 H         1 UNK         0.0000 
  19196 H(5)       76.1306  151.6243    5.3025 H         1 UNK         0.0000 
  19197 H(6)       76.3664  145.3139    5.3956 H         1 UNK         0.0000 
  19198 H(7)       74.8123  142.8748    4.3514 H         1 UNK         0.0000 
  19199 H(8)       75.8873  143.2398    5.6446 H         1 UNK         0.0000 
  19200 H(9)       74.2101  142.8202    5.9254 H         1 UNK         0.0000 
  19201 O(1)       63.6832   12.6340    6.2473 O.3       1 UNK         0.0000 
  19202 O(2)       61.6854   11.3940   12.2913 O.2       1 UNK         0.0000 
  19203 N(1)       63.8665   11.3433   11.6604 N.am      1 UNK         0.0000 
  19204 C(1)       63.7671   11.7022   10.2975 C.ar      1 UNK         0.0000 
  19205 C(2)       62.6849   12.3881    9.7463 C.ar      1 UNK         0.0000 
  19206 C(3)       62.6779   12.6969    8.3892 C.ar      1 UNK         0.0000 
  19207 C(4)       63.7479   12.3342    7.5752 C.ar      1 UNK         0.0000 
  19208 C(5)       64.8435   11.6758    8.1323 C.ar      1 UNK         0.0000 
  19209 C(6)       64.8488   11.3630    9.4841 C.ar      1 UNK         0.0000 
  19210 C(7)       62.8758   11.1905   12.5539 C.2       1 UNK         0.0000 
  19211 C(8)       63.3166   10.7579   13.9266 C.3       1 UNK         0.0000 
  19212 H(1)       61.8444   12.6738   10.3666 H         1 UNK         0.0000 
  19213 H(2)       61.8271   13.2268    7.9789 H         1 UNK         0.0000 
  19214 H(3)       65.6867   11.4057    7.5086 H         1 UNK         0.0000 
  19215 H(4)       65.6994   10.8499    9.9156 H         1 UNK         0.0000 
  19216 H(5)       64.5566   12.5735    5.8415 H         1 UNK         0.0000 
  19217 H(6)       64.7925   11.0986   11.9779 H         1 UNK         0.0000 
  19218 H(7)       63.2383   11.5823   14.5866 H         1 UNK         0.0000 
  19219 H(8)       64.3134   10.4007   13.9469 H         1 UNK         0.0000 
  19220 H(9)       62.6361   10.0347   14.2946 H         1 UNK         0.0000 
  19221 O(1)       68.0367    1.3125    9.4321 O.3       1 UNK         0.0000 
  19222 O(2)       70.0345    7.4813    9.5479 O.2       1 UNK         0.0000 
  19223 N(1)       67.8534    6.8769    9.3602 N.am      1 UNK         0.0000 
  19224 C(1)       67.9528    5.4685    9.4114 C.ar      1 UNK         0.0000 
  19225 C(2)       69.0350    4.7803    9.9597 C.ar      1 UNK         0.0000 
  19226 C(3)       69.0420    3.3885    9.9633 C.ar      1 UNK         0.0000 
  19227 C(4)       67.9720    2.6738    9.4309 C.ar      1 UNK         0.0000 
  19228 C(5)       66.8764    3.3618    8.9107 C.ar      1 UNK         0.0000 
  19229 C(6)       66.8711    4.7493    8.9020 C.ar      1 UNK         0.0000 
  19230 C(7)       68.8441    7.7822    9.4070 C.2       1 UNK         0.0000 
  19231 C(8)       68.4033    9.2163    9.2860 C.3       1 UNK         0.0000 
  19232 H(1)       69.8755    5.3228   10.3744 H         1 UNK         0.0000 
  19233 H(2)       69.8928    2.8720   10.3903 H         1 UNK         0.0000 
  19234 H(3)       66.0332    2.8125    8.5104 H         1 UNK         0.0000 
  19235 H(4)       66.0204    5.2828    8.4961 H         1 UNK         0.0000 
  19236 H(5)       67.1633    0.9299    9.2841 H         1 UNK         0.0000 
  19237 H(6)       66.9274    7.2404    9.1910 H         1 UNK         0.0000 
  19238 H(7)       68.4815    9.6795   10.2352 H         1 UNK         0.0000 
  19239 H(8)       67.4065    9.3145    8.9420 H         1 UNK         0.0000 
  19240 H(9)       69.0838    9.7340    8.6612 H         1 UNK         0.0000 
  19241 O(1)       58.2166   13.5102   15.5017 O.3       1 UNK         0.0000 
  19242 O(2)       60.2144   14.7503    9.4577 O.2       1 UNK         0.0000 
  19243 N(1)       58.0333   14.8009   10.0886 N.am      1 UNK         0.0000 
  19244 C(1)       58.1327   14.4420   11.4515 C.ar      1 UNK         0.0000 
  19245 C(2)       59.2149   13.7561   12.0027 C.ar      1 UNK         0.0000 
  19246 C(3)       59.2219   13.4474   13.3599 C.ar      1 UNK         0.0000 
  19247 C(4)       58.1519   13.8100   14.1738 C.ar      1 UNK         0.0000 
  19248 C(5)       57.0563   14.4684   13.6167 C.ar      1 UNK         0.0000 
  19249 C(6)       57.0510   14.7813   12.2649 C.ar      1 UNK         0.0000 
  19250 C(7)       59.0240   14.9538    9.1951 C.2       1 UNK         0.0000 
  19251 C(8)       58.5832   15.3864    7.8224 C.3       1 UNK         0.0000 
  19252 H(1)       60.0554   13.4705   11.3824 H         1 UNK         0.0000 
  19253 H(2)       60.0727   12.9175   13.7701 H         1 UNK         0.0000 
  19254 H(3)       56.2131   14.7385   14.2404 H         1 UNK         0.0000 
  19255 H(4)       56.2003   15.2944   11.8334 H         1 UNK         0.0000 
  19256 H(5)       57.3431   13.5707   15.9075 H         1 UNK         0.0000 
  19257 H(6)       57.1073   15.0457    9.7711 H         1 UNK         0.0000 
  19258 H(7)       58.6614   14.5620    7.1624 H         1 UNK         0.0000 
  19259 H(8)       57.5864   15.7436    7.8021 H         1 UNK         0.0000 
  19260 H(9)       59.2637   16.1095    7.4544 H         1 UNK         0.0000 
  19261 O(1)       59.3493   10.1494   12.3169 O.3       1 UNK         0.0000 
  19262 O(2)       57.3515    3.9806   12.2011 O.2       1 UNK         0.0000 
  19263 N(1)       59.5326    4.5850   12.3888 N.am      1 UNK         0.0000 
  19264 C(1)       59.4332    5.9935   12.3376 C.ar      1 UNK         0.0000 
  19265 C(2)       58.3510    6.6817   11.7893 C.ar      1 UNK         0.0000 
  19266 C(3)       58.3440    8.0735   11.7858 C.ar      1 UNK         0.0000 
  19267 C(4)       59.4140    8.7881   12.3181 C.ar      1 UNK         0.0000 
  19268 C(5)       60.5096    8.1002   12.8383 C.ar      1 UNK         0.0000 
  19269 C(6)       60.5149    6.7126   12.8470 C.ar      1 UNK         0.0000 
  19270 C(7)       58.5419    3.6797   12.3420 C.2       1 UNK         0.0000 
  19271 C(8)       58.9827    2.2456   12.4630 C.3       1 UNK         0.0000 
  19272 H(1)       57.5105    6.1391   11.3746 H         1 UNK         0.0000 
  19273 H(2)       57.4932    8.5900   11.3587 H         1 UNK         0.0000 
  19274 H(3)       61.3528    8.6494   13.2386 H         1 UNK         0.0000 
  19275 H(4)       61.3656    6.1791   13.2530 H         1 UNK         0.0000 
  19276 H(5)       60.2227   10.5320   12.4649 H         1 UNK         0.0000 
  19277 H(6)       60.4586    4.2215   12.5580 H         1 UNK         0.0000 
  19278 H(7)       58.9045    1.7825   11.5138 H         1 UNK         0.0000 
  19279 H(8)       59.9795    2.1474   12.8070 H         1 UNK         0.0000 
  19280 H(9)       58.3022    1.7279   13.0878 H         1 UNK         0.0000 
  19281 O(1)       63.6832   18.3650   13.4097 O.3       1 UNK         0.0000 
  19282 O(2)       61.6854   17.1249   19.4537 O.2       1 UNK         0.0000 
  19283 N(1)       63.8665   17.0743   18.8228 N.am      1 UNK         0.0000 
  19284 C(1)       63.7671   17.4332   17.4599 C.ar      1 UNK         0.0000 
  19285 C(2)       62.6849   18.1191   16.9087 C.ar      1 UNK         0.0000 
  19286 C(3)       62.6779   18.4278   15.5516 C.ar      1 UNK         0.0000 
  19287 C(4)       63.7479   18.0652   14.7376 C.ar      1 UNK         0.0000 
  19288 C(5)       64.8435   17.4068   15.2947 C.ar      1 UNK         0.0000 
  19289 C(6)       64.8488   17.0939   16.6465 C.ar      1 UNK         0.0000 
  19290 C(7)       62.8758   16.9215   19.7163 C.2       1 UNK         0.0000 
  19291 C(8)       63.3166   16.4888   21.0890 C.3       1 UNK         0.0000 
  19292 H(1)       61.8444   18.4047   17.5290 H         1 UNK         0.0000 
  19293 H(2)       61.8271   18.9577   15.1413 H         1 UNK         0.0000 
  19294 H(3)       65.6867   17.1367   14.6710 H         1 UNK         0.0000 
  19295 H(4)       65.6994   16.5809   17.0780 H         1 UNK         0.0000 
  19296 H(5)       64.5566   18.3045   13.0039 H         1 UNK         0.0000 
  19297 H(6)       64.7925   16.8295   19.1403 H         1 UNK         0.0000 
  19298 H(7)       63.2383   17.3133   21.7490 H         1 UNK         0.0000 
  19299 H(8)       64.3134   16.1317   21.1093 H         1 UNK         0.0000 
  19300 H(9)       62.6361   15.7657   21.4570 H         1 UNK         0.0000 
  19301 O(1)       68.0367    7.0435   16.5945 O.3       1 UNK         0.0000 
  19302 O(2)       70.0345   13.2123   16.7103 O.2       1 UNK         0.0000 
  19303 N(1)       67.8534   12.6079   16.5226 N.am      1 UNK         0.0000 
  19304 C(1)       67.9528   11.1994   16.5738 C.ar      1 UNK         0.0000 
  19305 C(2)       69.0350   10.5112   17.1221 C.ar      1 UNK         0.0000 
  19306 C(3)       69.0420    9.1194   17.1257 C.ar      1 UNK         0.0000 
  19307 C(4)       67.9720    8.4048   16.5933 C.ar      1 UNK         0.0000 
  19308 C(5)       66.8764    9.0927   16.0731 C.ar      1 UNK         0.0000 
  19309 C(6)       66.8711   10.4803   16.0644 C.ar      1 UNK         0.0000 
  19310 C(7)       68.8441   13.5132   16.5694 C.2       1 UNK         0.0000 
  19311 C(8)       68.4033   14.9473   16.4484 C.3       1 UNK         0.0000 
  19312 H(1)       69.8755   11.0538   17.5368 H         1 UNK         0.0000 
  19313 H(2)       69.8928    8.6029   17.5527 H         1 UNK         0.0000 
  19314 H(3)       66.0332    8.5435   15.6728 H         1 UNK         0.0000 
  19315 H(4)       66.0204   11.0138   15.6585 H         1 UNK         0.0000 
  19316 H(5)       67.1633    6.6609   16.4465 H         1 UNK         0.0000 
  19317 H(6)       66.9274   12.9713   16.3534 H         1 UNK         0.0000 
  19318 H(7)       68.4815   15.4104   17.3976 H         1 UNK         0.0000 
  19319 H(8)       67.4065   15.0455   16.1044 H         1 UNK         0.0000 
  19320 H(9)       69.0838   15.4650   15.8236 H         1 UNK         0.0000 
  19321 O(1)       63.7028    4.5589   22.6641 O.3       1 UNK         0.0000 
  19322 O(2)       65.7006    5.7989   16.6201 O.2       1 UNK         0.0000 
  19323 N(1)       63.5195    5.8496   17.2510 N.am      1 UNK         0.0000 
  19324 C(1)       63.6189    5.4907   18.6139 C.ar      1 UNK         0.0000 
  19325 C(2)       64.7011    4.8048   19.1651 C.ar      1 UNK         0.0000 
  19326 C(3)       64.7081    4.4960   20.5223 C.ar      1 UNK         0.0000 
  19327 C(4)       63.6381    4.8587   21.3362 C.ar      1 UNK         0.0000 
  19328 C(5)       62.5425    5.5171   20.7791 C.ar      1 UNK         0.0000 
  19329 C(6)       62.5372    5.8299   19.4273 C.ar      1 UNK         0.0000 
  19330 C(7)       64.5102    6.0024   16.3575 C.2       1 UNK         0.0000 
  19331 C(8)       64.0694    6.4350   14.9848 C.3       1 UNK         0.0000 
  19332 H(1)       65.5416    4.5191   18.5448 H         1 UNK         0.0000 
  19333 H(2)       65.5589    3.9661   20.9325 H         1 UNK         0.0000 
  19334 H(3)       61.6993    5.7872   21.4028 H         1 UNK         0.0000 
  19335 H(4)       61.6866    6.3430   18.9958 H         1 UNK         0.0000 
  19336 H(5)       62.8294    4.6194   23.0699 H         1 UNK         0.0000 
  19337 H(6)       62.5935    6.0943   16.9335 H         1 UNK         0.0000 
  19338 H(7)       64.1477    5.6106   14.3248 H         1 UNK         0.0000 
  19339 H(8)       63.0726    6.7922   14.9645 H         1 UNK         0.0000 
  19340 H(9)       64.7499    7.1582   14.6168 H         1 UNK         0.0000 
  19341 O(1)       66.4263   15.8804   19.4793 O.3       1 UNK         0.0000 
  19342 O(2)       64.4285    9.7116   19.3635 O.2       1 UNK         0.0000 
  19343 N(1)       66.6096   10.3160   19.5512 N.am      1 UNK         0.0000 
  19344 C(1)       66.5102   11.7244   19.5000 C.ar      1 UNK         0.0000 
  19345 C(2)       65.4280   12.4126   18.9517 C.ar      1 UNK         0.0000 
  19346 C(3)       65.4210   13.8044   18.9482 C.ar      1 UNK         0.0000 
  19347 C(4)       66.4910   14.5191   19.4805 C.ar      1 UNK         0.0000 
  19348 C(5)       67.5866   13.8311   20.0007 C.ar      1 UNK         0.0000 
  19349 C(6)       67.5919   12.4436   20.0094 C.ar      1 UNK         0.0000 
  19350 C(7)       65.6189    9.4107   19.5044 C.2       1 UNK         0.0000 
  19351 C(8)       66.0597    7.9766   19.6254 C.3       1 UNK         0.0000 
  19352 H(1)       64.5875   11.8701   18.5370 H         1 UNK         0.0000 
  19353 H(2)       64.5702   14.3209   18.5211 H         1 UNK         0.0000 
  19354 H(3)       68.4298   14.3804   20.4010 H         1 UNK         0.0000 
  19355 H(4)       68.4426   11.9101   20.4154 H         1 UNK         0.0000 
  19356 H(5)       67.2997   16.2630   19.6273 H         1 UNK         0.0000 
  19357 H(6)       67.5356    9.9525   19.7204 H         1 UNK         0.0000 
  19358 H(7)       65.9815    7.5134   18.6762 H         1 UNK         0.0000 
  19359 H(8)       67.0565    7.8784   19.9694 H         1 UNK         0.0000 
  19360 H(9)       65.3792    7.4589   20.2502 H         1 UNK         0.0000 
  19361 O(1)       62.0924    9.4136   20.5721 O.3       1 UNK         0.0000 
  19362 O(2)       60.0946    8.1736   26.6161 O.2       1 UNK         0.0000 
  19363 N(1)       62.2757    8.1229   25.9852 N.am      1 UNK         0.0000 
  19364 C(1)       62.1763    8.4818   24.6223 C.ar      1 UNK         0.0000 
  19365 C(2)       61.0941    9.1677   24.0711 C.ar      1 UNK         0.0000 
  19366 C(3)       61.0871    9.4765   22.7140 C.ar      1 UNK         0.0000 
  19367 C(4)       62.1571    9.1138   21.9000 C.ar      1 UNK         0.0000 
  19368 C(5)       63.2527    8.4554   22.4571 C.ar      1 UNK         0.0000 
  19369 C(6)       63.2580    8.1426   23.8089 C.ar      1 UNK         0.0000 
  19370 C(7)       61.2850    7.9701   26.8787 C.2       1 UNK         0.0000 
  19371 C(8)       61.7258    7.5375   28.2514 C.3       1 UNK         0.0000 
  19372 H(1)       60.2536    9.4534   24.6914 H         1 UNK         0.0000 
  19373 H(2)       60.2363   10.0064   22.3037 H         1 UNK         0.0000 
  19374 H(3)       64.0959    8.1853   21.8334 H         1 UNK         0.0000 
  19375 H(4)       64.1087    7.6295   24.2404 H         1 UNK         0.0000 
  19376 H(5)       62.9659    9.3531   20.1663 H         1 UNK         0.0000 
  19377 H(6)       63.2017    7.8782   26.3027 H         1 UNK         0.0000 
  19378 H(7)       61.6476    8.3619   28.9114 H         1 UNK         0.0000 
  19379 H(8)       62.7226    7.1803   28.2717 H         1 UNK         0.0000 
  19380 H(9)       61.0453    6.8143   28.6194 H         1 UNK         0.0000 
  19381 O(1)       60.9597   12.7745   23.7569 O.3       1 UNK         0.0000 
  19382 O(2)       62.9575   18.9433   23.8727 O.2       1 UNK         0.0000 
  19383 N(1)       60.7764   18.3389   23.6850 N.am      1 UNK         0.0000 
  19384 C(1)       60.8758   16.9304   23.7362 C.ar      1 UNK         0.0000 
  19385 C(2)       61.9580   16.2422   24.2845 C.ar      1 UNK         0.0000 
  19386 C(3)       61.9650   14.8504   24.2881 C.ar      1 UNK         0.0000 
  19387 C(4)       60.8950   14.1358   23.7557 C.ar      1 UNK         0.0000 
  19388 C(5)       59.7994   14.8237   23.2355 C.ar      1 UNK         0.0000 
  19389 C(6)       59.7941   16.2112   23.2268 C.ar      1 UNK         0.0000 
  19390 C(7)       61.7671   19.2442   23.7318 C.2       1 UNK         0.0000 
  19391 C(8)       61.3263   20.6783   23.6108 C.3       1 UNK         0.0000 
  19392 H(1)       62.7985   16.7847   24.6992 H         1 UNK         0.0000 
  19393 H(2)       62.8158   14.3339   24.7151 H         1 UNK         0.0000 
  19394 H(3)       58.9562   14.2744   22.8352 H         1 UNK         0.0000 
  19395 H(4)       58.9434   16.7448   22.8209 H         1 UNK         0.0000 
  19396 H(5)       60.0863   12.3919   23.6089 H         1 UNK         0.0000 
  19397 H(6)       59.8504   18.7023   23.5158 H         1 UNK         0.0000 
  19398 H(7)       61.4045   21.1414   24.5600 H         1 UNK         0.0000 
  19399 H(8)       60.3295   20.7764   23.2668 H         1 UNK         0.0000 
  19400 H(9)       62.0068   21.1960   22.9860 H         1 UNK         0.0000 
  19401 O(1)       65.2936    7.7793    8.3393 O.3       1 UNK         0.0000 
  19402 O(2)       67.2914    9.0193    2.2953 O.2       1 UNK         0.0000 
  19403 N(1)       65.1103    9.0700    2.9262 N.am      1 UNK         0.0000 
  19404 C(1)       65.2097    8.7111    4.2891 C.ar      1 UNK         0.0000 
  19405 C(2)       66.2919    8.0252    4.8403 C.ar      1 UNK         0.0000 
  19406 C(3)       66.2989    7.7164    6.1975 C.ar      1 UNK         0.0000 
  19407 C(4)       65.2289    8.0791    7.0114 C.ar      1 UNK         0.0000 
  19408 C(5)       64.1333    8.7375    6.4543 C.ar      1 UNK         0.0000 
  19409 C(6)       64.1280    9.0503    5.1025 C.ar      1 UNK         0.0000 
  19410 C(7)       66.1010    9.2228    2.0327 C.2       1 UNK         0.0000 
  19411 C(8)       65.6602    9.6554    0.6600 C.3       1 UNK         0.0000 
  19412 H(1)       67.1324    7.7395    4.2200 H         1 UNK         0.0000 
  19413 H(2)       67.1497    7.1865    6.6077 H         1 UNK         0.0000 
  19414 H(3)       63.2901    9.0076    7.0780 H         1 UNK         0.0000 
  19415 H(4)       63.2773    9.5634    4.6710 H         1 UNK         0.0000 
  19416 H(5)       64.4201    7.8398    8.7451 H         1 UNK         0.0000 
  19417 H(6)       64.1843    9.3147    2.6087 H         1 UNK         0.0000 
  19418 H(7)       65.7384    8.8310    0.0000 H         1 UNK         0.0000 
  19419 H(8)       64.6634   10.0126    0.6397 H         1 UNK         0.0000 
  19420 H(9)       66.3407   10.3786    0.2920 H         1 UNK         0.0000 
  19421 O(1)       68.0171   19.1008    5.1545 O.3       1 UNK         0.0000 
  19422 O(2)       66.0193   12.9320    5.0387 O.2       1 UNK         0.0000 
  19423 N(1)       68.2004   13.5364    5.2264 N.am      1 UNK         0.0000 
  19424 C(1)       68.1010   14.9448    5.1752 C.ar      1 UNK         0.0000 
  19425 C(2)       67.0188   15.6330    4.6269 C.ar      1 UNK         0.0000 
  19426 C(3)       67.0118   17.0248    4.6234 C.ar      1 UNK         0.0000 
  19427 C(4)       68.0818   17.7395    5.1557 C.ar      1 UNK         0.0000 
  19428 C(5)       69.1774   17.0515    5.6759 C.ar      1 UNK         0.0000 
  19429 C(6)       69.1827   15.6640    5.6846 C.ar      1 UNK         0.0000 
  19430 C(7)       67.2096   12.6311    5.1796 C.2       1 UNK         0.0000 
  19431 C(8)       67.6505   11.1969    5.3006 C.3       1 UNK         0.0000 
  19432 H(1)       66.1783   15.0905    4.2122 H         1 UNK         0.0000 
  19433 H(2)       66.1610   17.5413    4.1963 H         1 UNK         0.0000 
  19434 H(3)       70.0206   17.6008    6.0762 H         1 UNK         0.0000 
  19435 H(4)       70.0333   15.1305    6.0906 H         1 UNK         0.0000 
  19436 H(5)       68.8905   19.4834    5.3025 H         1 UNK         0.0000 
  19437 H(6)       69.1264   13.1729    5.3956 H         1 UNK         0.0000 
  19438 H(7)       67.5722   10.7338    4.3514 H         1 UNK         0.0000 
  19439 H(8)       68.6473   11.0988    5.6446 H         1 UNK         0.0000 
  19440 H(9)       66.9700   10.6793    5.9254 H         1 UNK         0.0000 
  19441 O(1)       65.2740   27.3164    6.2473 O.3       1 UNK         0.0000 
  19442 O(2)       63.2762   26.0763   12.2913 O.2       1 UNK         0.0000 
  19443 N(1)       65.4573   26.0256   11.6604 N.am      1 UNK         0.0000 
  19444 C(1)       65.3579   26.3846   10.2975 C.ar      1 UNK         0.0000 
  19445 C(2)       64.2757   27.0704    9.7463 C.ar      1 UNK         0.0000 
  19446 C(3)       64.2687   27.3792    8.3892 C.ar      1 UNK         0.0000 
  19447 C(4)       65.3387   27.0165    7.5752 C.ar      1 UNK         0.0000 
  19448 C(5)       66.4343   26.3582    8.1323 C.ar      1 UNK         0.0000 
  19449 C(6)       66.4396   26.0453    9.4841 C.ar      1 UNK         0.0000 
  19450 C(7)       64.4665   25.8728   12.5539 C.2       1 UNK         0.0000 
  19451 C(8)       64.9074   25.4402   13.9266 C.3       1 UNK         0.0000 
  19452 H(1)       63.4352   27.3561   10.3666 H         1 UNK         0.0000 
  19453 H(2)       63.4179   27.9091    7.9789 H         1 UNK         0.0000 
  19454 H(3)       67.2775   26.0881    7.5086 H         1 UNK         0.0000 
  19455 H(4)       67.2902   25.5322    9.9156 H         1 UNK         0.0000 
  19456 H(5)       66.1474   27.2558    5.8415 H         1 UNK         0.0000 
  19457 H(6)       66.3833   25.7809   11.9779 H         1 UNK         0.0000 
  19458 H(7)       64.8291   26.2646   14.5866 H         1 UNK         0.0000 
  19459 H(8)       65.9042   25.0830   13.9469 H         1 UNK         0.0000 
  19460 H(9)       64.2269   24.7171   14.2946 H         1 UNK         0.0000 
  19461 O(1)       69.6275   15.9949    9.4321 O.3       1 UNK         0.0000 
  19462 O(2)       71.6253   22.1637    9.5479 O.2       1 UNK         0.0000 
  19463 N(1)       69.4441   21.5592    9.3602 N.am      1 UNK         0.0000 
  19464 C(1)       69.5436   20.1508    9.4114 C.ar      1 UNK         0.0000 
  19465 C(2)       70.6258   19.4626    9.9597 C.ar      1 UNK         0.0000 
  19466 C(3)       70.6328   18.0708    9.9633 C.ar      1 UNK         0.0000 
  19467 C(4)       69.5628   17.3562    9.4309 C.ar      1 UNK         0.0000 
  19468 C(5)       68.4672   18.0441    8.9107 C.ar      1 UNK         0.0000 
  19469 C(6)       68.4618   19.4316    8.9020 C.ar      1 UNK         0.0000 
  19470 C(7)       70.4349   22.4646    9.4070 C.2       1 UNK         0.0000 
  19471 C(8)       69.9941   23.8987    9.2860 C.3       1 UNK         0.0000 
  19472 H(1)       71.4663   20.0051   10.3744 H         1 UNK         0.0000 
  19473 H(2)       71.4836   17.5543   10.3903 H         1 UNK         0.0000 
  19474 H(3)       67.6240   17.4948    8.5104 H         1 UNK         0.0000 
  19475 H(4)       67.6112   19.9652    8.4961 H         1 UNK         0.0000 
  19476 H(5)       68.7540   15.6123    9.2841 H         1 UNK         0.0000 
  19477 H(6)       68.5182   21.9227    9.1910 H         1 UNK         0.0000 
  19478 H(7)       70.0723   24.3618   10.2352 H         1 UNK         0.0000 
  19479 H(8)       68.9973   23.9968    8.9420 H         1 UNK         0.0000 
  19480 H(9)       70.6745   24.4164    8.6612 H         1 UNK         0.0000 
  19481 O(1)       59.8074   28.1926   15.5017 O.3       1 UNK         0.0000 
  19482 O(2)       61.8052   29.4326    9.4577 O.2       1 UNK         0.0000 
  19483 N(1)       59.6240   29.4833   10.0886 N.am      1 UNK         0.0000 
  19484 C(1)       59.7235   29.1244   11.4515 C.ar      1 UNK         0.0000 
  19485 C(2)       60.8056   28.4385   12.0027 C.ar      1 UNK         0.0000 
  19486 C(3)       60.8127   28.1297   13.3599 C.ar      1 UNK         0.0000 
  19487 C(4)       59.7427   28.4924   14.1738 C.ar      1 UNK         0.0000 
  19488 C(5)       58.6470   29.1508   13.6167 C.ar      1 UNK         0.0000 
  19489 C(6)       58.6417   29.4636   12.2649 C.ar      1 UNK         0.0000 
  19490 C(7)       60.6148   29.6361    9.1951 C.2       1 UNK         0.0000 
  19491 C(8)       60.1740   30.0687    7.8224 C.3       1 UNK         0.0000 
  19492 H(1)       61.6462   28.1528   11.3824 H         1 UNK         0.0000 
  19493 H(2)       61.6635   27.5998   13.7701 H         1 UNK         0.0000 
  19494 H(3)       57.8039   29.4209   14.2404 H         1 UNK         0.0000 
  19495 H(4)       57.7911   29.9767   11.8334 H         1 UNK         0.0000 
  19496 H(5)       58.9339   28.2531   15.9075 H         1 UNK         0.0000 
  19497 H(6)       58.6981   29.7280    9.7711 H         1 UNK         0.0000 
  19498 H(7)       60.2522   29.2443    7.1624 H         1 UNK         0.0000 
  19499 H(8)       59.1772   30.4259    7.8021 H         1 UNK         0.0000 
  19500 H(9)       60.8544   30.7919    7.4544 H         1 UNK         0.0000 
  19501 O(1)       60.9401   24.8317   12.3169 O.3       1 UNK         0.0000 
  19502 O(2)       58.9423   18.6629   12.2011 O.2       1 UNK         0.0000 
  19503 N(1)       61.1234   19.2673   12.3888 N.am      1 UNK         0.0000 
  19504 C(1)       61.0240   20.6758   12.3376 C.ar      1 UNK         0.0000 
  19505 C(2)       59.9418   21.3640   11.7893 C.ar      1 UNK         0.0000 
  19506 C(3)       59.9348   22.7558   11.7858 C.ar      1 UNK         0.0000 
  19507 C(4)       61.0048   23.4704   12.3181 C.ar      1 UNK         0.0000 
  19508 C(5)       62.1004   22.7825   12.8383 C.ar      1 UNK         0.0000 
  19509 C(6)       62.1057   21.3950   12.8470 C.ar      1 UNK         0.0000 
  19510 C(7)       60.1326   18.3620   12.3420 C.2       1 UNK         0.0000 
  19511 C(8)       60.5735   16.9279   12.4630 C.3       1 UNK         0.0000 
  19512 H(1)       59.1013   20.8215   11.3746 H         1 UNK         0.0000 
  19513 H(2)       59.0840   23.2723   11.3587 H         1 UNK         0.0000 
  19514 H(3)       62.9436   23.3317   13.2386 H         1 UNK         0.0000 
  19515 H(4)       62.9563   20.8614   13.2530 H         1 UNK         0.0000 
  19516 H(5)       61.8135   25.2143   12.4649 H         1 UNK         0.0000 
  19517 H(6)       62.0494   18.9039   12.5580 H         1 UNK         0.0000 
  19518 H(7)       60.4952   16.4648   11.5138 H         1 UNK         0.0000 
  19519 H(8)       61.5703   16.8298   12.8070 H         1 UNK         0.0000 
  19520 H(9)       59.8930   16.4102   13.0878 H         1 UNK         0.0000 
  19521 O(1)       65.2740   33.0473   13.4097 O.3       1 UNK         0.0000 
  19522 O(2)       63.2762   31.8072   19.4537 O.2       1 UNK         0.0000 
  19523 N(1)       65.4573   31.7566   18.8228 N.am      1 UNK         0.0000 
  19524 C(1)       65.3579   32.1155   17.4599 C.ar      1 UNK         0.0000 
  19525 C(2)       64.2757   32.8014   16.9087 C.ar      1 UNK         0.0000 
  19526 C(3)       64.2687   33.1102   15.5516 C.ar      1 UNK         0.0000 
  19527 C(4)       65.3387   32.7475   14.7376 C.ar      1 UNK         0.0000 
  19528 C(5)       66.4343   32.0891   15.2947 C.ar      1 UNK         0.0000 
  19529 C(6)       66.4396   31.7763   16.6465 C.ar      1 UNK         0.0000 
  19530 C(7)       64.4665   31.6038   19.7163 C.2       1 UNK         0.0000 
  19531 C(8)       64.9074   31.1711   21.0890 C.3       1 UNK         0.0000 
  19532 H(1)       63.4352   33.0871   17.5290 H         1 UNK         0.0000 
  19533 H(2)       63.4179   33.6401   15.1413 H         1 UNK         0.0000 
  19534 H(3)       67.2775   31.8190   14.6710 H         1 UNK         0.0000 
  19535 H(4)       67.2902   31.2632   17.0780 H         1 UNK         0.0000 
  19536 H(5)       66.1474   32.9868   13.0039 H         1 UNK         0.0000 
  19537 H(6)       66.3833   31.5119   19.1403 H         1 UNK         0.0000 
  19538 H(7)       64.8291   31.9956   21.7490 H         1 UNK         0.0000 
  19539 H(8)       65.9042   30.8140   21.1093 H         1 UNK         0.0000 
  19540 H(9)       64.2269   30.4480   21.4570 H         1 UNK         0.0000 
  19541 O(1)       69.6275   21.7258   16.5945 O.3       1 UNK         0.0000 
  19542 O(2)       71.6253   27.8946   16.7103 O.2       1 UNK         0.0000 
  19543 N(1)       69.4441   27.2902   16.5226 N.am      1 UNK         0.0000 
  19544 C(1)       69.5436   25.8818   16.5738 C.ar      1 UNK         0.0000 
  19545 C(2)       70.6258   25.1936   17.1221 C.ar      1 UNK         0.0000 
  19546 C(3)       70.6328   23.8017   17.1257 C.ar      1 UNK         0.0000 
  19547 C(4)       69.5628   23.0871   16.5933 C.ar      1 UNK         0.0000 
  19548 C(5)       68.4672   23.7751   16.0731 C.ar      1 UNK         0.0000 
  19549 C(6)       68.4618   25.1626   16.0644 C.ar      1 UNK         0.0000 
  19550 C(7)       70.4349   28.1955   16.5694 C.2       1 UNK         0.0000 
  19551 C(8)       69.9941   29.6296   16.4484 C.3       1 UNK         0.0000 
  19552 H(1)       71.4663   25.7361   17.5368 H         1 UNK         0.0000 
  19553 H(2)       71.4836   23.2853   17.5527 H         1 UNK         0.0000 
  19554 H(3)       67.6240   23.2258   15.6728 H         1 UNK         0.0000 
  19555 H(4)       67.6112   25.6961   15.6585 H         1 UNK         0.0000 
  19556 H(5)       68.7540   21.3432   16.4465 H         1 UNK         0.0000 
  19557 H(6)       68.5182   27.6537   16.3534 H         1 UNK         0.0000 
  19558 H(7)       70.0723   30.0928   17.3976 H         1 UNK         0.0000 
  19559 H(8)       68.9973   29.7278   16.1044 H         1 UNK         0.0000 
  19560 H(9)       70.6745   30.1473   15.8236 H         1 UNK         0.0000 
  19561 O(1)       65.2936   19.2412   22.6641 O.3       1 UNK         0.0000 
  19562 O(2)       67.2914   20.4813   16.6201 O.2       1 UNK         0.0000 
  19563 N(1)       65.1103   20.5319   17.2510 N.am      1 UNK         0.0000 
  19564 C(1)       65.2097   20.1730   18.6139 C.ar      1 UNK         0.0000 
  19565 C(2)       66.2919   19.4871   19.1651 C.ar      1 UNK         0.0000 
  19566 C(3)       66.2989   19.1784   20.5223 C.ar      1 UNK         0.0000 
  19567 C(4)       65.2289   19.5410   21.3362 C.ar      1 UNK         0.0000 
  19568 C(5)       64.1333   20.1994   20.7791 C.ar      1 UNK         0.0000 
  19569 C(6)       64.1280   20.5123   19.4273 C.ar      1 UNK         0.0000 
  19570 C(7)       66.1010   20.6847   16.3575 C.2       1 UNK         0.0000 
  19571 C(8)       65.6602   21.1174   14.9848 C.3       1 UNK         0.0000 
  19572 H(1)       67.1324   19.2015   18.5448 H         1 UNK         0.0000 
  19573 H(2)       67.1497   18.6484   20.9325 H         1 UNK         0.0000 
  19574 H(3)       63.2901   20.4695   21.4028 H         1 UNK         0.0000 
  19575 H(4)       63.2773   21.0253   18.9958 H         1 UNK         0.0000 
  19576 H(5)       64.4201   19.3017   23.0699 H         1 UNK         0.0000 
  19577 H(6)       64.1843   20.7767   16.9335 H         1 UNK         0.0000 
  19578 H(7)       65.7384   20.2929   14.3248 H         1 UNK         0.0000 
  19579 H(8)       64.6634   21.4745   14.9645 H         1 UNK         0.0000 
  19580 H(9)       66.3407   21.8405   14.6168 H         1 UNK         0.0000 
  19581 O(1)       68.0171   30.5627   19.4793 O.3       1 UNK         0.0000 
  19582 O(2)       66.0193   24.3939   19.3635 O.2       1 UNK         0.0000 
  19583 N(1)       68.2004   24.9983   19.5512 N.am      1 UNK         0.0000 
  19584 C(1)       68.1010   26.4068   19.5000 C.ar      1 UNK         0.0000 
  19585 C(2)       67.0188   27.0950   18.9517 C.ar      1 UNK         0.0000 
  19586 C(3)       67.0118   28.4868   18.9482 C.ar      1 UNK         0.0000 
  19587 C(4)       68.0818   29.2014   19.4805 C.ar      1 UNK         0.0000 
  19588 C(5)       69.1774   28.5135   20.0007 C.ar      1 UNK         0.0000 
  19589 C(6)       69.1827   27.1259   20.0094 C.ar      1 UNK         0.0000 
  19590 C(7)       67.2096   24.0930   19.5044 C.2       1 UNK         0.0000 
  19591 C(8)       67.6505   22.6589   19.6254 C.3       1 UNK         0.0000 
  19592 H(1)       66.1783   26.5524   18.5370 H         1 UNK         0.0000 
  19593 H(2)       66.1610   29.0033   18.5211 H         1 UNK         0.0000 
  19594 H(3)       70.0206   29.0627   20.4010 H         1 UNK         0.0000 
  19595 H(4)       70.0333   26.5924   20.4154 H         1 UNK         0.0000 
  19596 H(5)       68.8905   30.9453   19.6273 H         1 UNK         0.0000 
  19597 H(6)       69.1264   24.6348   19.7204 H         1 UNK         0.0000 
  19598 H(7)       67.5722   22.1958   18.6762 H         1 UNK         0.0000 
  19599 H(8)       68.6473   22.5607   19.9694 H         1 UNK         0.0000 
  19600 H(9)       66.9700   22.1412   20.2502 H         1 UNK         0.0000 
  19601 O(1)       63.6832   24.0960   20.5721 O.3       1 UNK         0.0000 
  19602 O(2)       61.6854   22.8559   26.6161 O.2       1 UNK         0.0000 
  19603 N(1)       63.8665   22.8052   25.9852 N.am      1 UNK         0.0000 
  19604 C(1)       63.7671   23.1642   24.6223 C.ar      1 UNK         0.0000 
  19605 C(2)       62.6849   23.8500   24.0711 C.ar      1 UNK         0.0000 
  19606 C(3)       62.6779   24.1588   22.7140 C.ar      1 UNK         0.0000 
  19607 C(4)       63.7479   23.7962   21.9000 C.ar      1 UNK         0.0000 
  19608 C(5)       64.8435   23.1378   22.4571 C.ar      1 UNK         0.0000 
  19609 C(6)       64.8488   22.8249   23.8089 C.ar      1 UNK         0.0000 
  19610 C(7)       62.8758   22.6524   26.8787 C.2       1 UNK         0.0000 
  19611 C(8)       63.3166   22.2198   28.2514 C.3       1 UNK         0.0000 
  19612 H(1)       61.8444   24.1357   24.6914 H         1 UNK         0.0000 
  19613 H(2)       61.8271   24.6887   22.3037 H         1 UNK         0.0000 
  19614 H(3)       65.6867   22.8677   21.8334 H         1 UNK         0.0000 
  19615 H(4)       65.6994   22.3118   24.2404 H         1 UNK         0.0000 
  19616 H(5)       64.5566   24.0354   20.1663 H         1 UNK         0.0000 
  19617 H(6)       64.7925   22.5605   26.3027 H         1 UNK         0.0000 
  19618 H(7)       63.2383   23.0442   28.9114 H         1 UNK         0.0000 
  19619 H(8)       64.3134   21.8626   28.2717 H         1 UNK         0.0000 
  19620 H(9)       62.6361   21.4967   28.6194 H         1 UNK         0.0000 
  19621 O(1)       62.5505   27.4568   23.7569 O.3       1 UNK         0.0000 
  19622 O(2)       64.5483   33.6256   23.8727 O.2       1 UNK         0.0000 
  19623 N(1)       62.3671   33.0212   23.6850 N.am      1 UNK         0.0000 
  19624 C(1)       62.4666   31.6127   23.7362 C.ar      1 UNK         0.0000 
  19625 C(2)       63.5488   30.9245   24.2845 C.ar      1 UNK         0.0000 
  19626 C(3)       63.5558   29.5327   24.2881 C.ar      1 UNK         0.0000 
  19627 C(4)       62.4858   28.8181   23.7557 C.ar      1 UNK         0.0000 
  19628 C(5)       61.3902   29.5060   23.2355 C.ar      1 UNK         0.0000 
  19629 C(6)       61.3848   30.8936   23.2268 C.ar      1 UNK         0.0000 
  19630 C(7)       63.3579   33.9265   23.7318 C.2       1 UNK         0.0000 
  19631 C(8)       62.9171   35.3606   23.6108 C.3       1 UNK         0.0000 
  19632 H(1)       64.3893   31.4671   24.6992 H         1 UNK         0.0000 
  19633 H(2)       64.4066   29.0162   24.7151 H         1 UNK         0.0000 
  19634 H(3)       60.5470   28.9568   22.8352 H         1 UNK         0.0000 
  19635 H(4)       60.5342   31.4271   22.8209 H         1 UNK         0.0000 
  19636 H(5)       61.6770   27.0742   23.6089 H         1 UNK         0.0000 
  19637 H(6)       61.4412   33.3846   23.5158 H         1 UNK         0.0000 
  19638 H(7)       62.9953   35.8237   24.5600 H         1 UNK         0.0000 
  19639 H(8)       61.9203   35.4588   23.2668 H         1 UNK         0.0000 
  19640 H(9)       63.5975   35.8783   22.9860 H         1 UNK         0.0000 
  19641 O(1)       66.8844   22.4616    8.3393 O.3       1 UNK         0.0000 
  19642 O(2)       68.8822   23.7017    2.2953 O.2       1 UNK         0.0000 
  19643 N(1)       66.7010   23.7523    2.9262 N.am      1 UNK         0.0000 
  19644 C(1)       66.8005   23.3934    4.2891 C.ar      1 UNK         0.0000 
  19645 C(2)       67.8826   22.7075    4.8403 C.ar      1 UNK         0.0000 
  19646 C(3)       67.8897   22.3988    6.1975 C.ar      1 UNK         0.0000 
  19647 C(4)       66.8197   22.7614    7.0114 C.ar      1 UNK         0.0000 
  19648 C(5)       65.7240   23.4198    6.4543 C.ar      1 UNK         0.0000 
  19649 C(6)       65.7187   23.7327    5.1025 C.ar      1 UNK         0.0000 
  19650 C(7)       67.6918   23.9051    2.0327 C.2       1 UNK         0.0000 
  19651 C(8)       67.2510   24.3378    0.6600 C.3       1 UNK         0.0000 
  19652 H(1)       68.7232   22.4219    4.2200 H         1 UNK         0.0000 
  19653 H(2)       68.7405   21.8688    6.6077 H         1 UNK         0.0000 
  19654 H(3)       64.8809   23.6899    7.0780 H         1 UNK         0.0000 
  19655 H(4)       64.8681   24.2457    4.6710 H         1 UNK         0.0000 
  19656 H(5)       66.0109   22.5221    8.7451 H         1 UNK         0.0000 
  19657 H(6)       65.7751   23.9971    2.6087 H         1 UNK         0.0000 
  19658 H(7)       67.3292   23.5133    0.0000 H         1 UNK         0.0000 
  19659 H(8)       66.2542   24.6949    0.6397 H         1 UNK         0.0000 
  19660 H(9)       67.9314   25.0609    0.2920 H         1 UNK         0.0000 
  19661 O(1)       69.6079   33.7831    5.1545 O.3       1 UNK         0.0000 
  19662 O(2)       67.6101   27.6143    5.0387 O.2       1 UNK         0.0000 
  19663 N(1)       69.7912   28.2187    5.2264 N.am      1 UNK         0.0000 
  19664 C(1)       69.6917   29.6272    5.1752 C.ar      1 UNK         0.0000 
  19665 C(2)       68.6096   30.3154    4.6269 C.ar      1 UNK         0.0000 
  19666 C(3)       68.6026   31.7072    4.6234 C.ar      1 UNK         0.0000 
  19667 C(4)       69.6726   32.4218    5.1557 C.ar      1 UNK         0.0000 
  19668 C(5)       70.7682   31.7339    5.6759 C.ar      1 UNK         0.0000 
  19669 C(6)       70.7735   30.3463    5.6846 C.ar      1 UNK         0.0000 
  19670 C(7)       68.8004   27.3134    5.1796 C.2       1 UNK         0.0000 
  19671 C(8)       69.2413   25.8793    5.3006 C.3       1 UNK         0.0000 
  19672 H(1)       67.7691   29.7728    4.2122 H         1 UNK         0.0000 
  19673 H(2)       67.7518   32.2236    4.1963 H         1 UNK         0.0000 
  19674 H(3)       71.6114   32.2831    6.0762 H         1 UNK         0.0000 
  19675 H(4)       71.6241   29.8128    6.0906 H         1 UNK         0.0000 
  19676 H(5)       70.4813   34.1657    5.3025 H         1 UNK         0.0000 
  19677 H(6)       70.7172   27.8552    5.3956 H         1 UNK         0.0000 
  19678 H(7)       69.1630   25.4162    4.3514 H         1 UNK         0.0000 
  19679 H(8)       70.2381   25.7811    5.6446 H         1 UNK         0.0000 
  19680 H(9)       68.5608   25.3616    5.9254 H         1 UNK         0.0000 
  19681 O(1)       66.8648   41.9987    6.2473 O.3       1 UNK         0.0000 
  19682 O(2)       64.8670   40.7586   12.2913 O.2       1 UNK         0.0000 
  19683 N(1)       67.0481   40.7080   11.6604 N.am      1 UNK         0.0000 
  19684 C(1)       66.9486   41.0669   10.2975 C.ar      1 UNK         0.0000 
  19685 C(2)       65.8665   41.7528    9.7463 C.ar      1 UNK         0.0000 
  19686 C(3)       65.8595   42.0615    8.3892 C.ar      1 UNK         0.0000 
  19687 C(4)       66.9295   41.6989    7.5752 C.ar      1 UNK         0.0000 
  19688 C(5)       68.0251   41.0405    8.1323 C.ar      1 UNK         0.0000 
  19689 C(6)       68.0304   40.7276    9.4841 C.ar      1 UNK         0.0000 
  19690 C(7)       66.0573   40.5551   12.5539 C.2       1 UNK         0.0000 
  19691 C(8)       66.4982   40.1225   13.9266 C.3       1 UNK         0.0000 
  19692 H(1)       65.0260   42.0384   10.3666 H         1 UNK         0.0000 
  19693 H(2)       65.0086   42.5914    7.9789 H         1 UNK         0.0000 
  19694 H(3)       68.8683   40.7704    7.5086 H         1 UNK         0.0000 
  19695 H(4)       68.8810   40.2146    9.9156 H         1 UNK         0.0000 
  19696 H(5)       67.7382   41.9382    5.8415 H         1 UNK         0.0000 
  19697 H(6)       67.9741   40.4632   11.9779 H         1 UNK         0.0000 
  19698 H(7)       66.4199   40.9470   14.5866 H         1 UNK         0.0000 
  19699 H(8)       67.4950   39.7654   13.9469 H         1 UNK         0.0000 
  19700 H(9)       65.8177   39.3994   14.2946 H         1 UNK         0.0000 
  19701 O(1)       71.2183   30.6772    9.4321 O.3       1 UNK         0.0000 
  19702 O(2)       73.2161   36.8460    9.5479 O.2       1 UNK         0.0000 
  19703 N(1)       71.0349   36.2416    9.3602 N.am      1 UNK         0.0000 
  19704 C(1)       71.1344   34.8331    9.4114 C.ar      1 UNK         0.0000 
  19705 C(2)       72.2165   34.1449    9.9597 C.ar      1 UNK         0.0000 
  19706 C(3)       72.2236   32.7531    9.9633 C.ar      1 UNK         0.0000 
  19707 C(4)       71.1535   32.0385    9.4309 C.ar      1 UNK         0.0000 
  19708 C(5)       70.0579   32.7264    8.9107 C.ar      1 UNK         0.0000 
  19709 C(6)       70.0526   34.1140    8.9020 C.ar      1 UNK         0.0000 
  19710 C(7)       72.0257   37.1469    9.4070 C.2       1 UNK         0.0000 
  19711 C(8)       71.5849   38.5810    9.2860 C.3       1 UNK         0.0000 
  19712 H(1)       73.0571   34.6875   10.3744 H         1 UNK         0.0000 
  19713 H(2)       73.0744   32.2366   10.3903 H         1 UNK         0.0000 
  19714 H(3)       69.2148   32.1772    8.5104 H         1 UNK         0.0000 
  19715 H(4)       69.2020   34.6475    8.4961 H         1 UNK         0.0000 
  19716 H(5)       70.3448   30.2946    9.2841 H         1 UNK         0.0000 
  19717 H(6)       70.1090   36.6050    9.1910 H         1 UNK         0.0000 
  19718 H(7)       71.6631   39.0441   10.2352 H         1 UNK         0.0000 
  19719 H(8)       70.5881   38.6792    8.9420 H         1 UNK         0.0000 
  19720 H(9)       72.2653   39.0987    8.6612 H         1 UNK         0.0000 
  19721 O(1)       61.3982   42.8749   15.5017 O.3       1 UNK         0.0000 
  19722 O(2)       63.3960   44.1150    9.4577 O.2       1 UNK         0.0000 
  19723 N(1)       61.2148   44.1656   10.0886 N.am      1 UNK         0.0000 
  19724 C(1)       61.3143   43.8067   11.4515 C.ar      1 UNK         0.0000 
  19725 C(2)       62.3964   43.1208   12.0027 C.ar      1 UNK         0.0000 
  19726 C(3)       62.4035   42.8120   13.3599 C.ar      1 UNK         0.0000 
  19727 C(4)       61.3334   43.1747   14.1738 C.ar      1 UNK         0.0000 
  19728 C(5)       60.2378   43.8331   13.6167 C.ar      1 UNK         0.0000 
  19729 C(6)       60.2325   44.1460   12.2649 C.ar      1 UNK         0.0000 
  19730 C(7)       62.2056   44.3184    9.1951 C.2       1 UNK         0.0000 
  19731 C(8)       61.7647   44.7511    7.8224 C.3       1 UNK         0.0000 
  19732 H(1)       63.2370   42.8352   11.3824 H         1 UNK         0.0000 
  19733 H(2)       63.2543   42.2821   13.7701 H         1 UNK         0.0000 
  19734 H(3)       59.3947   44.1032   14.2404 H         1 UNK         0.0000 
  19735 H(4)       59.3819   44.6590   11.8334 H         1 UNK         0.0000 
  19736 H(5)       60.5247   42.9354   15.9075 H         1 UNK         0.0000 
  19737 H(6)       60.2889   44.4103    9.7711 H         1 UNK         0.0000 
  19738 H(7)       61.8430   43.9266    7.1624 H         1 UNK         0.0000 
  19739 H(8)       60.7680   45.1082    7.8021 H         1 UNK         0.0000 
  19740 H(9)       62.4452   45.4742    7.4544 H         1 UNK         0.0000 
  19741 O(1)       62.5309   39.5141   12.3169 O.3       1 UNK         0.0000 
  19742 O(2)       60.5331   33.3453   12.2011 O.2       1 UNK         0.0000 
  19743 N(1)       62.7142   33.9497   12.3888 N.am      1 UNK         0.0000 
  19744 C(1)       62.6148   35.3581   12.3376 C.ar      1 UNK         0.0000 
  19745 C(2)       61.5326   36.0463   11.7893 C.ar      1 UNK         0.0000 
  19746 C(3)       61.5256   37.4381   11.7858 C.ar      1 UNK         0.0000 
  19747 C(4)       62.5956   38.1527   12.3181 C.ar      1 UNK         0.0000 
  19748 C(5)       63.6912   37.4648   12.8383 C.ar      1 UNK         0.0000 
  19749 C(6)       63.6965   36.0773   12.8470 C.ar      1 UNK         0.0000 
  19750 C(7)       61.7234   33.0444   12.3420 C.2       1 UNK         0.0000 
  19751 C(8)       62.1643   31.6102   12.4630 C.3       1 UNK         0.0000 
  19752 H(1)       60.6921   35.5038   11.3746 H         1 UNK         0.0000 
  19753 H(2)       60.6748   37.9546   11.3587 H         1 UNK         0.0000 
  19754 H(3)       64.5344   38.0141   13.2386 H         1 UNK         0.0000 
  19755 H(4)       64.5471   35.5438   13.2530 H         1 UNK         0.0000 
  19756 H(5)       63.4043   39.8967   12.4649 H         1 UNK         0.0000 
  19757 H(6)       63.6402   33.5862   12.5580 H         1 UNK         0.0000 
  19758 H(7)       62.0860   31.1471   11.5138 H         1 UNK         0.0000 
  19759 H(8)       63.1611   31.5121   12.8070 H         1 UNK         0.0000 
  19760 H(9)       61.4838   31.0926   13.0878 H         1 UNK         0.0000 
  19761 O(1)       66.8648   47.7297   13.4097 O.3       1 UNK         0.0000 
  19762 O(2)       64.8670   46.4896   19.4537 O.2       1 UNK         0.0000 
  19763 N(1)       67.0481   46.4389   18.8228 N.am      1 UNK         0.0000 
  19764 C(1)       66.9486   46.7979   17.4599 C.ar      1 UNK         0.0000 
  19765 C(2)       65.8665   47.4837   16.9087 C.ar      1 UNK         0.0000 
  19766 C(3)       65.8595   47.7925   15.5516 C.ar      1 UNK         0.0000 
  19767 C(4)       66.9295   47.4298   14.7376 C.ar      1 UNK         0.0000 
  19768 C(5)       68.0251   46.7715   15.2947 C.ar      1 UNK         0.0000 
  19769 C(6)       68.0304   46.4586   16.6465 C.ar      1 UNK         0.0000 
  19770 C(7)       66.0573   46.2861   19.7163 C.2       1 UNK         0.0000 
  19771 C(8)       66.4982   45.8535   21.0890 C.3       1 UNK         0.0000 
  19772 H(1)       65.0260   47.7694   17.5290 H         1 UNK         0.0000 
  19773 H(2)       65.0086   48.3224   15.1413 H         1 UNK         0.0000 
  19774 H(3)       68.8683   46.5014   14.6710 H         1 UNK         0.0000 
  19775 H(4)       68.8810   45.9455   17.0780 H         1 UNK         0.0000 
  19776 H(5)       67.7382   47.6691   13.0039 H         1 UNK         0.0000 
  19777 H(6)       67.9741   46.1942   19.1403 H         1 UNK         0.0000 
  19778 H(7)       66.4199   46.6779   21.7490 H         1 UNK         0.0000 
  19779 H(8)       67.4950   45.4963   21.1093 H         1 UNK         0.0000 
  19780 H(9)       65.8177   45.1304   21.4570 H         1 UNK         0.0000 
  19781 O(1)       71.2183   36.4082   16.5945 O.3       1 UNK         0.0000 
  19782 O(2)       73.2161   42.5769   16.7103 O.2       1 UNK         0.0000 
  19783 N(1)       71.0349   41.9725   16.5226 N.am      1 UNK         0.0000 
  19784 C(1)       71.1344   40.5641   16.5738 C.ar      1 UNK         0.0000 
  19785 C(2)       72.2165   39.8759   17.1221 C.ar      1 UNK         0.0000 
  19786 C(3)       72.2236   38.4841   17.1257 C.ar      1 UNK         0.0000 
  19787 C(4)       71.1535   37.7695   16.5933 C.ar      1 UNK         0.0000 
  19788 C(5)       70.0579   38.4574   16.0731 C.ar      1 UNK         0.0000 
  19789 C(6)       70.0526   39.8449   16.0644 C.ar      1 UNK         0.0000 
  19790 C(7)       72.0257   42.8779   16.5694 C.2       1 UNK         0.0000 
  19791 C(8)       71.5849   44.3120   16.4484 C.3       1 UNK         0.0000 
  19792 H(1)       73.0571   40.4184   17.5368 H         1 UNK         0.0000 
  19793 H(2)       73.0744   37.9676   17.5527 H         1 UNK         0.0000 
  19794 H(3)       69.2148   37.9081   15.6728 H         1 UNK         0.0000 
  19795 H(4)       69.2020   40.3784   15.6585 H         1 UNK         0.0000 
  19796 H(5)       70.3448   36.0256   16.4465 H         1 UNK         0.0000 
  19797 H(6)       70.1090   42.3360   16.3534 H         1 UNK         0.0000 
  19798 H(7)       71.6631   44.7751   17.3976 H         1 UNK         0.0000 
  19799 H(8)       70.5881   44.4101   16.1044 H         1 UNK         0.0000 
  19800 H(9)       72.2653   44.8296   15.8236 H         1 UNK         0.0000 
  19801 O(1)       66.8844   33.9235   22.6641 O.3       1 UNK         0.0000 
  19802 O(2)       68.8822   35.1636   16.6201 O.2       1 UNK         0.0000 
  19803 N(1)       66.7010   35.2142   17.2510 N.am      1 UNK         0.0000 
  19804 C(1)       66.8005   34.8553   18.6139 C.ar      1 UNK         0.0000 
  19805 C(2)       67.8826   34.1694   19.1651 C.ar      1 UNK         0.0000 
  19806 C(3)       67.8897   33.8607   20.5223 C.ar      1 UNK         0.0000 
  19807 C(4)       66.8197   34.2233   21.3362 C.ar      1 UNK         0.0000 
  19808 C(5)       65.7240   34.8817   20.7791 C.ar      1 UNK         0.0000 
  19809 C(6)       65.7187   35.1946   19.4273 C.ar      1 UNK         0.0000 
  19810 C(7)       67.6918   35.3671   16.3575 C.2       1 UNK         0.0000 
  19811 C(8)       67.2510   35.7997   14.9848 C.3       1 UNK         0.0000 
  19812 H(1)       68.7232   33.8838   18.5448 H         1 UNK         0.0000 
  19813 H(2)       68.7405   33.3308   20.9325 H         1 UNK         0.0000 
  19814 H(3)       64.8809   35.1518   21.4028 H         1 UNK         0.0000 
  19815 H(4)       64.8681   35.7077   18.9958 H         1 UNK         0.0000 
  19816 H(5)       66.0109   33.9840   23.0699 H         1 UNK         0.0000 
  19817 H(6)       65.7751   35.4590   16.9335 H         1 UNK         0.0000 
  19818 H(7)       67.3292   34.9753   14.3248 H         1 UNK         0.0000 
  19819 H(8)       66.2542   36.1568   14.9645 H         1 UNK         0.0000 
  19820 H(9)       67.9314   36.5228   14.6168 H         1 UNK         0.0000 
  19821 O(1)       69.6079   45.2450   19.4793 O.3       1 UNK         0.0000 
  19822 O(2)       67.6101   39.0762   19.3635 O.2       1 UNK         0.0000 
  19823 N(1)       69.7912   39.6806   19.5512 N.am      1 UNK         0.0000 
  19824 C(1)       69.6917   41.0891   19.5000 C.ar      1 UNK         0.0000 
  19825 C(2)       68.6096   41.7773   18.9517 C.ar      1 UNK         0.0000 
  19826 C(3)       68.6026   43.1691   18.9482 C.ar      1 UNK         0.0000 
  19827 C(4)       69.6726   43.8837   19.4805 C.ar      1 UNK         0.0000 
  19828 C(5)       70.7682   43.1958   20.0007 C.ar      1 UNK         0.0000 
  19829 C(6)       70.7735   41.8082   20.0094 C.ar      1 UNK         0.0000 
  19830 C(7)       68.8004   38.7753   19.5044 C.2       1 UNK         0.0000 
  19831 C(8)       69.2413   37.3412   19.6254 C.3       1 UNK         0.0000 
  19832 H(1)       67.7691   41.2348   18.5370 H         1 UNK         0.0000 
  19833 H(2)       67.7518   43.6856   18.5211 H         1 UNK         0.0000 
  19834 H(3)       71.6114   43.7450   20.4010 H         1 UNK         0.0000 
  19835 H(4)       71.6241   41.2747   20.4154 H         1 UNK         0.0000 
  19836 H(5)       70.4813   45.6276   19.6273 H         1 UNK         0.0000 
  19837 H(6)       70.7172   39.3172   19.7204 H         1 UNK         0.0000 
  19838 H(7)       69.1630   36.8781   18.6762 H         1 UNK         0.0000 
  19839 H(8)       70.2381   37.2431   19.9694 H         1 UNK         0.0000 
  19840 H(9)       68.5608   36.8235   20.2502 H         1 UNK         0.0000 
  19841 O(1)       65.2740   38.7783   20.5721 O.3       1 UNK         0.0000 
  19842 O(2)       63.2762   37.5382   26.6161 O.2       1 UNK         0.0000 
  19843 N(1)       65.4573   37.4876   25.9852 N.am      1 UNK         0.0000 
  19844 C(1)       65.3579   37.8465   24.6223 C.ar      1 UNK         0.0000 
  19845 C(2)       64.2757   38.5324   24.0711 C.ar      1 UNK         0.0000 
  19846 C(3)       64.2687   38.8411   22.7140 C.ar      1 UNK         0.0000 
  19847 C(4)       65.3387   38.4785   21.9000 C.ar      1 UNK         0.0000 
  19848 C(5)       66.4343   37.8201   22.4571 C.ar      1 UNK         0.0000 
  19849 C(6)       66.4396   37.5072   23.8089 C.ar      1 UNK         0.0000 
  19850 C(7)       64.4665   37.3347   26.8787 C.2       1 UNK         0.0000 
  19851 C(8)       64.9074   36.9021   28.2514 C.3       1 UNK         0.0000 
  19852 H(1)       63.4352   38.8180   24.6914 H         1 UNK         0.0000 
  19853 H(2)       63.4179   39.3710   22.3037 H         1 UNK         0.0000 
  19854 H(3)       67.2775   37.5500   21.8334 H         1 UNK         0.0000 
  19855 H(4)       67.2902   36.9942   24.2404 H         1 UNK         0.0000 
  19856 H(5)       66.1474   38.7178   20.1663 H         1 UNK         0.0000 
  19857 H(6)       66.3833   37.2428   26.3027 H         1 UNK         0.0000 
  19858 H(7)       64.8291   37.7266   28.9114 H         1 UNK         0.0000 
  19859 H(8)       65.9042   36.5450   28.2717 H         1 UNK         0.0000 
  19860 H(9)       64.2269   36.1790   28.6194 H         1 UNK         0.0000 
  19861 O(1)       64.1413   42.1391   23.7569 O.3       1 UNK         0.0000 
  19862 O(2)       66.1391   48.3079   23.8727 O.2       1 UNK         0.0000 
  19863 N(1)       63.9579   47.7035   23.6850 N.am      1 UNK         0.0000 
  19864 C(1)       64.0574   46.2951   23.7362 C.ar      1 UNK         0.0000 
  19865 C(2)       65.1395   45.6068   24.2845 C.ar      1 UNK         0.0000 
  19866 C(3)       65.1466   44.2150   24.2881 C.ar      1 UNK         0.0000 
  19867 C(4)       64.0765   43.5004   23.7557 C.ar      1 UNK         0.0000 
  19868 C(5)       62.9809   44.1884   23.2355 C.ar      1 UNK         0.0000 
  19869 C(6)       62.9756   45.5759   23.2268 C.ar      1 UNK         0.0000 
  19870 C(7)       64.9487   48.6088   23.7318 C.2       1 UNK         0.0000 
  19871 C(8)       64.5079   50.0429   23.6108 C.3       1 UNK         0.0000 
  19872 H(1)       65.9801   46.1494   24.6992 H         1 UNK         0.0000 
  19873 H(2)       65.9974   43.6986   24.7151 H         1 UNK         0.0000 
  19874 H(3)       62.1378   43.6391   22.8352 H         1 UNK         0.0000 
  19875 H(4)       62.1250   46.1094   22.8209 H         1 UNK         0.0000 
  19876 H(5)       63.2678   41.7565   23.6089 H         1 UNK         0.0000 
  19877 H(6)       63.0320   48.0670   23.5158 H         1 UNK         0.0000 
  19878 H(7)       64.5861   50.5060   24.5600 H         1 UNK         0.0000 
  19879 H(8)       63.5111   50.1411   23.2668 H         1 UNK         0.0000 
  19880 H(9)       65.1883   50.5606   22.9860 H         1 UNK         0.0000 
  19881 O(1)       68.4752   37.1439    8.3393 O.3       1 UNK         0.0000 
  19882 O(2)       70.4730   38.3840    2.2953 O.2       1 UNK         0.0000 
  19883 N(1)       68.2918   38.4346    2.9262 N.am      1 UNK         0.0000 
  19884 C(1)       68.3913   38.0757    4.2891 C.ar      1 UNK         0.0000 
  19885 C(2)       69.4734   37.3898    4.8403 C.ar      1 UNK         0.0000 
  19886 C(3)       69.4805   37.0811    6.1975 C.ar      1 UNK         0.0000 
  19887 C(4)       68.4104   37.4437    7.0114 C.ar      1 UNK         0.0000 
  19888 C(5)       67.3148   38.1021    6.4543 C.ar      1 UNK         0.0000 
  19889 C(6)       67.3095   38.4150    5.1025 C.ar      1 UNK         0.0000 
  19890 C(7)       69.2826   38.5875    2.0327 C.2       1 UNK         0.0000 
  19891 C(8)       68.8417   39.0201    0.6600 C.3       1 UNK         0.0000 
  19892 H(1)       70.3140   37.1042    4.2200 H         1 UNK         0.0000 
  19893 H(2)       70.3313   36.5512    6.6077 H         1 UNK         0.0000 
  19894 H(3)       66.4717   38.3722    7.0780 H         1 UNK         0.0000 
  19895 H(4)       66.4589   38.9281    4.6710 H         1 UNK         0.0000 
  19896 H(5)       67.6017   37.2044    8.7451 H         1 UNK         0.0000 
  19897 H(6)       67.3659   38.6794    2.6087 H         1 UNK         0.0000 
  19898 H(7)       68.9200   38.1956    0.0000 H         1 UNK         0.0000 
  19899 H(8)       67.8450   39.3772    0.6397 H         1 UNK         0.0000 
  19900 H(9)       69.5222   39.7432    0.2920 H         1 UNK         0.0000 
  19901 O(1)       71.1987   48.4654    5.1545 O.3       1 UNK         0.0000 
  19902 O(2)       69.2008   42.2966    5.0387 O.2       1 UNK         0.0000 
  19903 N(1)       71.3820   42.9010    5.2264 N.am      1 UNK         0.0000 
  19904 C(1)       71.2825   44.3095    5.1752 C.ar      1 UNK         0.0000 
  19905 C(2)       70.2004   44.9977    4.6269 C.ar      1 UNK         0.0000 
  19906 C(3)       70.1933   46.3895    4.6234 C.ar      1 UNK         0.0000 
  19907 C(4)       71.2634   47.1041    5.1557 C.ar      1 UNK         0.0000 
  19908 C(5)       72.3590   46.4162    5.6759 C.ar      1 UNK         0.0000 
  19909 C(6)       72.3643   45.0286    5.6846 C.ar      1 UNK         0.0000 
  19910 C(7)       70.3912   41.9957    5.1796 C.2       1 UNK         0.0000 
  19911 C(8)       70.8321   40.5616    5.3006 C.3       1 UNK         0.0000 
  19912 H(1)       69.3598   44.4552    4.2122 H         1 UNK         0.0000 
  19913 H(2)       69.3425   46.9060    4.1963 H         1 UNK         0.0000 
  19914 H(3)       73.2021   46.9654    6.0762 H         1 UNK         0.0000 
  19915 H(4)       73.2149   44.4951    6.0906 H         1 UNK         0.0000 
  19916 H(5)       72.0721   48.8480    5.3025 H         1 UNK         0.0000 
  19917 H(6)       72.3080   42.5376    5.3956 H         1 UNK         0.0000 
  19918 H(7)       70.7538   40.0985    4.3514 H         1 UNK         0.0000 
  19919 H(8)       71.8288   40.4635    5.6446 H         1 UNK         0.0000 
  19920 H(9)       70.1516   40.0439    5.9254 H         1 UNK         0.0000 
  19921 O(1)       68.4556   56.6810    6.2473 O.3       1 UNK         0.0000 
  19922 O(2)       66.4577   55.4409   12.2913 O.2       1 UNK         0.0000 
  19923 N(1)       68.6389   55.3903   11.6604 N.am      1 UNK         0.0000 
  19924 C(1)       68.5394   55.7492   10.2975 C.ar      1 UNK         0.0000 
  19925 C(2)       67.4573   56.4351    9.7463 C.ar      1 UNK         0.0000 
  19926 C(3)       67.4502   56.7439    8.3892 C.ar      1 UNK         0.0000 
  19927 C(4)       68.5203   56.3812    7.5752 C.ar      1 UNK         0.0000 
  19928 C(5)       69.6159   55.7228    8.1323 C.ar      1 UNK         0.0000 
  19929 C(6)       69.6212   55.4100    9.4841 C.ar      1 UNK         0.0000 
  19930 C(7)       67.6481   55.2375   12.5539 C.2       1 UNK         0.0000 
  19931 C(8)       68.0890   54.8048   13.9266 C.3       1 UNK         0.0000 
  19932 H(1)       66.6167   56.7208   10.3666 H         1 UNK         0.0000 
  19933 H(2)       66.5994   57.2738    7.9789 H         1 UNK         0.0000 
  19934 H(3)       70.4590   55.4527    7.5086 H         1 UNK         0.0000 
  19935 H(4)       70.4718   54.8969    9.9156 H         1 UNK         0.0000 
  19936 H(5)       69.3290   56.6205    5.8415 H         1 UNK         0.0000 
  19937 H(6)       69.5648   55.1456   11.9779 H         1 UNK         0.0000 
  19938 H(7)       68.0107   55.6293   14.5866 H         1 UNK         0.0000 
  19939 H(8)       69.0857   54.4477   13.9469 H         1 UNK         0.0000 
  19940 H(9)       67.4085   54.0817   14.2946 H         1 UNK         0.0000 
  19941 O(1)       72.8090   45.3595    9.4321 O.3       1 UNK         0.0000 
  19942 O(2)       74.8069   51.5283    9.5479 O.2       1 UNK         0.0000 
  19943 N(1)       72.6257   50.9239    9.3602 N.am      1 UNK         0.0000 
  19944 C(1)       72.7252   49.5155    9.4114 C.ar      1 UNK         0.0000 
  19945 C(2)       73.8073   48.8272    9.9597 C.ar      1 UNK         0.0000 
  19946 C(3)       73.8144   47.4354    9.9633 C.ar      1 UNK         0.0000 
  19947 C(4)       72.7443   46.7208    9.4309 C.ar      1 UNK         0.0000 
  19948 C(5)       71.6487   47.4088    8.9107 C.ar      1 UNK         0.0000 
  19949 C(6)       71.6434   48.7963    8.9020 C.ar      1 UNK         0.0000 
  19950 C(7)       73.6165   51.8292    9.4070 C.2       1 UNK         0.0000 
  19951 C(8)       73.1756   53.2633    9.2860 C.3       1 UNK         0.0000 
  19952 H(1)       74.6479   49.3698   10.3744 H         1 UNK         0.0000 
  19953 H(2)       74.6652   46.9190   10.3903 H         1 UNK         0.0000 
  19954 H(3)       70.8056   46.8595    8.5104 H         1 UNK         0.0000 
  19955 H(4)       70.7928   49.3298    8.4961 H         1 UNK         0.0000 
  19956 H(5)       71.9356   44.9769    9.2841 H         1 UNK         0.0000 
  19957 H(6)       71.6997   51.2874    9.1910 H         1 UNK         0.0000 
  19958 H(7)       73.2539   53.7264   10.2352 H         1 UNK         0.0000 
  19959 H(8)       72.1789   53.3615    8.9420 H         1 UNK         0.0000 
  19960 H(9)       73.8561   53.7810    8.6612 H         1 UNK         0.0000 
  19961 O(1)       62.9889   57.5572   15.5017 O.3       1 UNK         0.0000 
  19962 O(2)       64.9868   58.7973    9.4577 O.2       1 UNK         0.0000 
  19963 N(1)       62.8056   58.8479   10.0886 N.am      1 UNK         0.0000 
  19964 C(1)       62.9051   58.4890   11.4515 C.ar      1 UNK         0.0000 
  19965 C(2)       63.9872   57.8031   12.0027 C.ar      1 UNK         0.0000 
  19966 C(3)       63.9942   57.4944   13.3599 C.ar      1 UNK         0.0000 
  19967 C(4)       62.9242   57.8570   14.1738 C.ar      1 UNK         0.0000 
  19968 C(5)       61.8286   58.5154   13.6167 C.ar      1 UNK         0.0000 
  19969 C(6)       61.8233   58.8283   12.2649 C.ar      1 UNK         0.0000 
  19970 C(7)       63.7964   59.0008    9.1951 C.2       1 UNK         0.0000 
  19971 C(8)       63.3555   59.4334    7.8224 C.3       1 UNK         0.0000 
  19972 H(1)       64.8278   57.5175   11.3824 H         1 UNK         0.0000 
  19973 H(2)       64.8451   56.9645   13.7701 H         1 UNK         0.0000 
  19974 H(3)       60.9854   58.7855   14.2404 H         1 UNK         0.0000 
  19975 H(4)       60.9727   59.3414   11.8334 H         1 UNK         0.0000 
  19976 H(5)       62.1155   57.6177   15.9075 H         1 UNK         0.0000 
  19977 H(6)       61.8796   59.0927    9.7711 H         1 UNK         0.0000 
  19978 H(7)       63.4338   58.6089    7.1624 H         1 UNK         0.0000 
  19979 H(8)       62.3587   59.7905    7.8021 H         1 UNK         0.0000 
  19980 H(9)       64.0360   60.1565    7.4544 H         1 UNK         0.0000 
  19981 O(1)       64.1217   54.1964   12.3169 O.3       1 UNK         0.0000 
  19982 O(2)       62.1238   48.0276   12.2011 O.2       1 UNK         0.0000 
  19983 N(1)       64.3050   48.6320   12.3888 N.am      1 UNK         0.0000 
  19984 C(1)       64.2055   50.0404   12.3376 C.ar      1 UNK         0.0000 
  19985 C(2)       63.1234   50.7287   11.7893 C.ar      1 UNK         0.0000 
  19986 C(3)       63.1163   52.1205   11.7858 C.ar      1 UNK         0.0000 
  19987 C(4)       64.1864   52.8351   12.3181 C.ar      1 UNK         0.0000 
  19988 C(5)       65.2820   52.1472   12.8383 C.ar      1 UNK         0.0000 
  19989 C(6)       65.2873   50.7596   12.8470 C.ar      1 UNK         0.0000 
  19990 C(7)       63.3142   47.7267   12.3420 C.2       1 UNK         0.0000 
  19991 C(8)       63.7551   46.2926   12.4630 C.3       1 UNK         0.0000 
  19992 H(1)       62.2828   50.1861   11.3746 H         1 UNK         0.0000 
  19993 H(2)       62.2655   52.6369   11.3587 H         1 UNK         0.0000 
  19994 H(3)       66.1251   52.6964   13.2386 H         1 UNK         0.0000 
  19995 H(4)       66.1379   50.2261   13.2530 H         1 UNK         0.0000 
  19996 H(5)       64.9951   54.5790   12.4649 H         1 UNK         0.0000 
  19997 H(6)       65.2310   48.2685   12.5580 H         1 UNK         0.0000 
  19998 H(7)       63.6768   45.8295   11.5138 H         1 UNK         0.0000 
  19999 H(8)       64.7518   46.1944   12.8070 H         1 UNK         0.0000 
  20000 H(9)       63.0746   45.7749   13.0878 H         1 UNK         0.0000 
  20001 O(1)       68.4556   62.4120   13.4097 O.3       1 UNK         0.0000 
  20002 O(2)       66.4577   61.1719   19.4537 O.2       1 UNK         0.0000 
  20003 N(1)       68.6389   61.1213   18.8228 N.am      1 UNK         0.0000 
  20004 C(1)       68.5394   61.4802   17.4599 C.ar      1 UNK         0.0000 
  20005 C(2)       67.4573   62.1661   16.9087 C.ar      1 UNK         0.0000 
  20006 C(3)       67.4502   62.4748   15.5516 C.ar      1 UNK         0.0000 
  20007 C(4)       68.5203   62.1122   14.7376 C.ar      1 UNK         0.0000 
  20008 C(5)       69.6159   61.4538   15.2947 C.ar      1 UNK         0.0000 
  20009 C(6)       69.6212   61.1409   16.6465 C.ar      1 UNK         0.0000 
  20010 C(7)       67.6481   60.9684   19.7163 C.2       1 UNK         0.0000 
  20011 C(8)       68.0890   60.5358   21.0890 C.3       1 UNK         0.0000 
  20012 H(1)       66.6167   62.4517   17.5290 H         1 UNK         0.0000 
  20013 H(2)       66.5994   63.0047   15.1413 H         1 UNK         0.0000 
  20014 H(3)       70.4590   61.1837   14.6710 H         1 UNK         0.0000 
  20015 H(4)       70.4718   60.6279   17.0780 H         1 UNK         0.0000 
  20016 H(5)       69.3290   62.3515   13.0039 H         1 UNK         0.0000 
  20017 H(6)       69.5648   60.8765   19.1403 H         1 UNK         0.0000 
  20018 H(7)       68.0107   61.3603   21.7490 H         1 UNK         0.0000 
  20019 H(8)       69.0857   60.1787   21.1093 H         1 UNK         0.0000 
  20020 H(9)       67.4085   59.8127   21.4570 H         1 UNK         0.0000 
  20021 O(1)       72.8090   51.0905   16.5945 O.3       1 UNK         0.0000 
  20022 O(2)       74.8069   57.2593   16.7103 O.2       1 UNK         0.0000 
  20023 N(1)       72.6257   56.6549   16.5226 N.am      1 UNK         0.0000 
  20024 C(1)       72.7252   55.2464   16.5738 C.ar      1 UNK         0.0000 
  20025 C(2)       73.8073   54.5582   17.1221 C.ar      1 UNK         0.0000 
  20026 C(3)       73.8144   53.1664   17.1257 C.ar      1 UNK         0.0000 
  20027 C(4)       72.7443   52.4518   16.5933 C.ar      1 UNK         0.0000 
  20028 C(5)       71.6487   53.1397   16.0731 C.ar      1 UNK         0.0000 
  20029 C(6)       71.6434   54.5273   16.0644 C.ar      1 UNK         0.0000 
  20030 C(7)       73.6165   57.5602   16.5694 C.2       1 UNK         0.0000 
  20031 C(8)       73.1756   58.9943   16.4484 C.3       1 UNK         0.0000 
  20032 H(1)       74.6479   55.1008   17.5368 H         1 UNK         0.0000 
  20033 H(2)       74.6652   52.6499   17.5527 H         1 UNK         0.0000 
  20034 H(3)       70.8056   52.5905   15.6728 H         1 UNK         0.0000 
  20035 H(4)       70.7928   55.0608   15.6585 H         1 UNK         0.0000 
  20036 H(5)       71.9356   50.7079   16.4465 H         1 UNK         0.0000 
  20037 H(6)       71.6997   57.0183   16.3534 H         1 UNK         0.0000 
  20038 H(7)       73.2539   59.4574   17.3976 H         1 UNK         0.0000 
  20039 H(8)       72.1789   59.0924   16.1044 H         1 UNK         0.0000 
  20040 H(9)       73.8561   59.5120   15.8236 H         1 UNK         0.0000 
  20041 O(1)       68.4752   48.6059   22.6641 O.3       1 UNK         0.0000 
  20042 O(2)       70.4730   49.8459   16.6201 O.2       1 UNK         0.0000 
  20043 N(1)       68.2918   49.8966   17.2510 N.am      1 UNK         0.0000 
  20044 C(1)       68.3913   49.5377   18.6139 C.ar      1 UNK         0.0000 
  20045 C(2)       69.4734   48.8518   19.1651 C.ar      1 UNK         0.0000 
  20046 C(3)       69.4805   48.5430   20.5223 C.ar      1 UNK         0.0000 
  20047 C(4)       68.4104   48.9057   21.3362 C.ar      1 UNK         0.0000 
  20048 C(5)       67.3148   49.5641   20.7791 C.ar      1 UNK         0.0000 
  20049 C(6)       67.3095   49.8769   19.4273 C.ar      1 UNK         0.0000 
  20050 C(7)       69.2826   50.0494   16.3575 C.2       1 UNK         0.0000 
  20051 C(8)       68.8417   50.4820   14.9848 C.3       1 UNK         0.0000 
  20052 H(1)       70.3140   48.5661   18.5448 H         1 UNK         0.0000 
  20053 H(2)       70.3313   48.0131   20.9325 H         1 UNK         0.0000 
  20054 H(3)       66.4717   49.8341   21.4028 H         1 UNK         0.0000 
  20055 H(4)       66.4589   50.3900   18.9958 H         1 UNK         0.0000 
  20056 H(5)       67.6017   48.6664   23.0699 H         1 UNK         0.0000 
  20057 H(6)       67.3659   50.1413   16.9335 H         1 UNK         0.0000 
  20058 H(7)       68.9200   49.6576   14.3248 H         1 UNK         0.0000 
  20059 H(8)       67.8450   50.8392   14.9645 H         1 UNK         0.0000 
  20060 H(9)       69.5222   51.2051   14.6168 H         1 UNK         0.0000 
  20061 O(1)       71.1987   59.9274   19.4793 O.3       1 UNK         0.0000 
  20062 O(2)       69.2008   53.7586   19.3635 O.2       1 UNK         0.0000 
  20063 N(1)       71.3820   54.3630   19.5512 N.am      1 UNK         0.0000 
  20064 C(1)       71.2825   55.7714   19.5000 C.ar      1 UNK         0.0000 
  20065 C(2)       70.2004   56.4596   18.9517 C.ar      1 UNK         0.0000 
  20066 C(3)       70.1933   57.8514   18.9482 C.ar      1 UNK         0.0000 
  20067 C(4)       71.2634   58.5660   19.4805 C.ar      1 UNK         0.0000 
  20068 C(5)       72.3590   57.8781   20.0007 C.ar      1 UNK         0.0000 
  20069 C(6)       72.3643   56.4906   20.0094 C.ar      1 UNK         0.0000 
  20070 C(7)       70.3912   53.4577   19.5044 C.2       1 UNK         0.0000 
  20071 C(8)       70.8321   52.0235   19.6254 C.3       1 UNK         0.0000 
  20072 H(1)       69.3598   55.9171   18.5370 H         1 UNK         0.0000 
  20073 H(2)       69.3425   58.3679   18.5211 H         1 UNK         0.0000 
  20074 H(3)       73.2021   58.4274   20.4010 H         1 UNK         0.0000 
  20075 H(4)       73.2149   55.9571   20.4154 H         1 UNK         0.0000 
  20076 H(5)       72.0721   60.3100   19.6273 H         1 UNK         0.0000 
  20077 H(6)       72.3080   53.9995   19.7204 H         1 UNK         0.0000 
  20078 H(7)       70.7538   51.5604   18.6762 H         1 UNK         0.0000 
  20079 H(8)       71.8288   51.9254   19.9694 H         1 UNK         0.0000 
  20080 H(9)       70.1516   51.5059   20.2502 H         1 UNK         0.0000 
  20081 O(1)       66.8648   53.4606   20.5721 O.3       1 UNK         0.0000 
  20082 O(2)       64.8670   52.2205   26.6161 O.2       1 UNK         0.0000 
  20083 N(1)       67.0481   52.1699   25.9852 N.am      1 UNK         0.0000 
  20084 C(1)       66.9486   52.5288   24.6223 C.ar      1 UNK         0.0000 
  20085 C(2)       65.8665   53.2147   24.0711 C.ar      1 UNK         0.0000 
  20086 C(3)       65.8595   53.5235   22.7140 C.ar      1 UNK         0.0000 
  20087 C(4)       66.9295   53.1608   21.9000 C.ar      1 UNK         0.0000 
  20088 C(5)       68.0251   52.5024   22.4571 C.ar      1 UNK         0.0000 
  20089 C(6)       68.0304   52.1896   23.8089 C.ar      1 UNK         0.0000 
  20090 C(7)       66.0573   52.0171   26.8787 C.2       1 UNK         0.0000 
  20091 C(8)       66.4982   51.5844   28.2514 C.3       1 UNK         0.0000 
  20092 H(1)       65.0260   53.5004   24.6914 H         1 UNK         0.0000 
  20093 H(2)       65.0086   54.0534   22.3037 H         1 UNK         0.0000 
  20094 H(3)       68.8683   52.2323   21.8334 H         1 UNK         0.0000 
  20095 H(4)       68.8810   51.6765   24.2404 H         1 UNK         0.0000 
  20096 H(5)       67.7382   53.4001   20.1663 H         1 UNK         0.0000 
  20097 H(6)       67.9741   51.9252   26.3027 H         1 UNK         0.0000 
  20098 H(7)       66.4199   52.4089   28.9114 H         1 UNK         0.0000 
  20099 H(8)       67.4950   51.2273   28.2717 H         1 UNK         0.0000 
  20100 H(9)       65.8177   50.8613   28.6194 H         1 UNK         0.0000 
  20101 O(1)       65.7320   56.8215   23.7569 O.3       1 UNK         0.0000 
  20102 O(2)       67.7299   62.9902   23.8727 O.2       1 UNK         0.0000 
  20103 N(1)       65.5487   62.3858   23.6850 N.am      1 UNK         0.0000 
  20104 C(1)       65.6482   60.9774   23.7362 C.ar      1 UNK         0.0000 
  20105 C(2)       66.7303   60.2892   24.2845 C.ar      1 UNK         0.0000 
  20106 C(3)       66.7374   58.8974   24.2881 C.ar      1 UNK         0.0000 
  20107 C(4)       65.6673   58.1828   23.7557 C.ar      1 UNK         0.0000 
  20108 C(5)       64.5717   58.8707   23.2355 C.ar      1 UNK         0.0000 
  20109 C(6)       64.5664   60.2582   23.2268 C.ar      1 UNK         0.0000 
  20110 C(7)       66.5395   63.2911   23.7318 C.2       1 UNK         0.0000 
  20111 C(8)       66.0986   64.7253   23.6108 C.3       1 UNK         0.0000 
  20112 H(1)       67.5709   60.8317   24.6992 H         1 UNK         0.0000 
  20113 H(2)       67.5882   58.3809   24.7151 H         1 UNK         0.0000 
  20114 H(3)       63.7286   58.3214   22.8352 H         1 UNK         0.0000 
  20115 H(4)       63.7158   60.7917   22.8209 H         1 UNK         0.0000 
  20116 H(5)       64.8586   56.4389   23.6089 H         1 UNK         0.0000 
  20117 H(6)       64.6227   62.7493   23.5158 H         1 UNK         0.0000 
  20118 H(7)       66.1769   65.1884   24.5600 H         1 UNK         0.0000 
  20119 H(8)       65.1019   64.8234   23.2668 H         1 UNK         0.0000 
  20120 H(9)       66.7791   65.2429   22.9860 H         1 UNK         0.0000 
  20121 O(1)       70.0659   51.8263    8.3393 O.3       1 UNK         0.0000 
  20122 O(2)       72.0638   53.0663    2.2953 O.2       1 UNK         0.0000 
  20123 N(1)       69.8826   53.1170    2.9262 N.am      1 UNK         0.0000 
  20124 C(1)       69.9821   52.7581    4.2891 C.ar      1 UNK         0.0000 
  20125 C(2)       71.0642   52.0722    4.8403 C.ar      1 UNK         0.0000 
  20126 C(3)       71.0713   51.7634    6.1975 C.ar      1 UNK         0.0000 
  20127 C(4)       70.0012   52.1261    7.0114 C.ar      1 UNK         0.0000 
  20128 C(5)       68.9056   52.7845    6.4543 C.ar      1 UNK         0.0000 
  20129 C(6)       68.9003   53.0973    5.1025 C.ar      1 UNK         0.0000 
  20130 C(7)       70.8734   53.2698    2.0327 C.2       1 UNK         0.0000 
  20131 C(8)       70.4325   53.7024    0.6600 C.3       1 UNK         0.0000 
  20132 H(1)       71.9048   51.7865    4.2200 H         1 UNK         0.0000 
  20133 H(2)       71.9221   51.2335    6.6077 H         1 UNK         0.0000 
  20134 H(3)       68.0624   53.0545    7.0780 H         1 UNK         0.0000 
  20135 H(4)       68.0497   53.6104    4.6710 H         1 UNK         0.0000 
  20136 H(5)       69.1925   51.8868    8.7451 H         1 UNK         0.0000 
  20137 H(6)       68.9566   53.3617    2.6087 H         1 UNK         0.0000 
  20138 H(7)       70.5108   52.8780    0.0000 H         1 UNK         0.0000 
  20139 H(8)       69.4357   54.0596    0.6397 H         1 UNK         0.0000 
  20140 H(9)       71.1130   54.4255    0.2920 H         1 UNK         0.0000 
  20141 O(1)       72.7894   63.1478    5.1545 O.3       1 UNK         0.0000 
  20142 O(2)       70.7916   56.9790    5.0387 O.2       1 UNK         0.0000 
  20143 N(1)       72.9728   57.5834    5.2264 N.am      1 UNK         0.0000 
  20144 C(1)       72.8733   58.9918    5.1752 C.ar      1 UNK         0.0000 
  20145 C(2)       71.7912   59.6800    4.6269 C.ar      1 UNK         0.0000 
  20146 C(3)       71.7841   61.0718    4.6234 C.ar      1 UNK         0.0000 
  20147 C(4)       72.8542   61.7864    5.1557 C.ar      1 UNK         0.0000 
  20148 C(5)       73.9498   61.0985    5.6759 C.ar      1 UNK         0.0000 
  20149 C(6)       73.9551   59.7110    5.6846 C.ar      1 UNK         0.0000 
  20150 C(7)       71.9820   56.6781    5.1796 C.2       1 UNK         0.0000 
  20151 C(8)       72.4229   55.2439    5.3006 C.3       1 UNK         0.0000 
  20152 H(1)       70.9506   59.1375    4.2122 H         1 UNK         0.0000 
  20153 H(2)       70.9333   61.5883    4.1963 H         1 UNK         0.0000 
  20154 H(3)       74.7929   61.6478    6.0762 H         1 UNK         0.0000 
  20155 H(4)       74.8057   59.1775    6.0906 H         1 UNK         0.0000 
  20156 H(5)       73.6629   63.5304    5.3025 H         1 UNK         0.0000 
  20157 H(6)       73.8987   57.2199    5.3956 H         1 UNK         0.0000 
  20158 H(7)       72.3446   54.7808    4.3514 H         1 UNK         0.0000 
  20159 H(8)       73.4196   55.1458    5.6446 H         1 UNK         0.0000 
  20160 H(9)       71.7424   54.7263    5.9254 H         1 UNK         0.0000 
  20161 O(1)       70.0463   71.3634    6.2473 O.3       1 UNK         0.0000 
  20162 O(2)       68.0485   70.1233   12.2913 O.2       1 UNK         0.0000 
  20163 N(1)       70.2297   70.0726   11.6604 N.am      1 UNK         0.0000 
  20164 C(1)       70.1302   70.4316   10.2975 C.ar      1 UNK         0.0000 
  20165 C(2)       69.0481   71.1174    9.7463 C.ar      1 UNK         0.0000 
  20166 C(3)       69.0410   71.4262    8.3892 C.ar      1 UNK         0.0000 
  20167 C(4)       70.1110   71.0635    7.5752 C.ar      1 UNK         0.0000 
  20168 C(5)       71.2067   70.4052    8.1323 C.ar      1 UNK         0.0000 
  20169 C(6)       71.2120   70.0923    9.4841 C.ar      1 UNK         0.0000 
  20170 C(7)       69.2389   69.9198   12.5539 C.2       1 UNK         0.0000 
  20171 C(8)       69.6797   69.4872   13.9266 C.3       1 UNK         0.0000 
  20172 H(1)       68.2075   71.4031   10.3666 H         1 UNK         0.0000 
  20173 H(2)       68.1902   71.9561    7.9789 H         1 UNK         0.0000 
  20174 H(3)       72.0498   70.1351    7.5086 H         1 UNK         0.0000 
  20175 H(4)       72.0626   69.5792    9.9156 H         1 UNK         0.0000 
  20176 H(5)       70.9198   71.3028    5.8415 H         1 UNK         0.0000 
  20177 H(6)       71.1556   69.8279   11.9779 H         1 UNK         0.0000 
  20178 H(7)       69.6015   70.3116   14.5866 H         1 UNK         0.0000 
  20179 H(8)       70.6765   69.1300   13.9469 H         1 UNK         0.0000 
  20180 H(9)       68.9993   68.7641   14.2946 H         1 UNK         0.0000 
  20181 O(1)       74.3998   60.0419    9.4321 O.3       1 UNK         0.0000 
  20182 O(2)       76.3976   66.2106    9.5479 O.2       1 UNK         0.0000 
  20183 N(1)       74.2165   65.6062    9.3602 N.am      1 UNK         0.0000 
  20184 C(1)       74.3160   64.1978    9.4114 C.ar      1 UNK         0.0000 
  20185 C(2)       75.3981   63.5096    9.9597 C.ar      1 UNK         0.0000 
  20186 C(3)       75.4051   62.1178    9.9633 C.ar      1 UNK         0.0000 
  20187 C(4)       74.3351   61.4032    9.4309 C.ar      1 UNK         0.0000 
  20188 C(5)       73.2395   62.0911    8.9107 C.ar      1 UNK         0.0000 
  20189 C(6)       73.2342   63.4786    8.9020 C.ar      1 UNK         0.0000 
  20190 C(7)       75.2073   66.5115    9.4070 C.2       1 UNK         0.0000 
  20191 C(8)       74.7664   67.9457    9.2860 C.3       1 UNK         0.0000 
  20192 H(1)       76.2386   64.0521   10.3744 H         1 UNK         0.0000 
  20193 H(2)       76.2560   61.6013   10.3903 H         1 UNK         0.0000 
  20194 H(3)       72.3963   61.5418    8.5104 H         1 UNK         0.0000 
  20195 H(4)       72.3836   64.0121    8.4961 H         1 UNK         0.0000 
  20196 H(5)       73.5264   59.6593    9.2841 H         1 UNK         0.0000 
  20197 H(6)       73.2905   65.9697    9.1910 H         1 UNK         0.0000 
  20198 H(7)       74.8447   68.4088   10.2352 H         1 UNK         0.0000 
  20199 H(8)       73.7696   68.0438    8.9420 H         1 UNK         0.0000 
  20200 H(9)       75.4469   68.4633    8.6612 H         1 UNK         0.0000 
  20201 O(1)       64.5797   72.2396   15.5017 O.3       1 UNK         0.0000 
  20202 O(2)       66.5775   73.4796    9.4577 O.2       1 UNK         0.0000 
  20203 N(1)       64.3964   73.5303   10.0886 N.am      1 UNK         0.0000 
  20204 C(1)       64.4958   73.1714   11.4515 C.ar      1 UNK         0.0000 
  20205 C(2)       65.5780   72.4855   12.0027 C.ar      1 UNK         0.0000 
  20206 C(3)       65.5850   72.1767   13.3599 C.ar      1 UNK         0.0000 
  20207 C(4)       64.5150   72.5394   14.1738 C.ar      1 UNK         0.0000 
  20208 C(5)       63.4194   73.1977   13.6167 C.ar      1 UNK         0.0000 
  20209 C(6)       63.4141   73.5106   12.2649 C.ar      1 UNK         0.0000 
  20210 C(7)       65.3872   73.6831    9.1951 C.2       1 UNK         0.0000 
  20211 C(8)       64.9463   74.1157    7.8224 C.3       1 UNK         0.0000 
  20212 H(1)       66.4185   72.1998   11.3824 H         1 UNK         0.0000 
  20213 H(2)       66.4358   71.6468   13.7701 H         1 UNK         0.0000 
  20214 H(3)       62.5762   73.4678   14.2404 H         1 UNK         0.0000 
  20215 H(4)       62.5635   74.0237   11.8334 H         1 UNK         0.0000 
  20216 H(5)       63.7063   72.3001   15.9075 H         1 UNK         0.0000 
  20217 H(6)       63.4704   73.7750    9.7711 H         1 UNK         0.0000 
  20218 H(7)       65.0246   73.2913    7.1624 H         1 UNK         0.0000 
  20219 H(8)       63.9495   74.4729    7.8021 H         1 UNK         0.0000 
  20220 H(9)       65.6268   74.8388    7.4544 H         1 UNK         0.0000 
  20221 O(1)       65.7124   68.8787   12.3169 O.3       1 UNK         0.0000 
  20222 O(2)       63.7146   62.7099   12.2011 O.2       1 UNK         0.0000 
  20223 N(1)       65.8958   63.3143   12.3888 N.am      1 UNK         0.0000 
  20224 C(1)       65.7963   64.7228   12.3376 C.ar      1 UNK         0.0000 
  20225 C(2)       64.7142   65.4110   11.7893 C.ar      1 UNK         0.0000 
  20226 C(3)       64.7071   66.8028   11.7858 C.ar      1 UNK         0.0000 
  20227 C(4)       65.7772   67.5174   12.3181 C.ar      1 UNK         0.0000 
  20228 C(5)       66.8728   66.8295   12.8383 C.ar      1 UNK         0.0000 
  20229 C(6)       66.8781   65.4419   12.8470 C.ar      1 UNK         0.0000 
  20230 C(7)       64.9050   62.4090   12.3420 C.2       1 UNK         0.0000 
  20231 C(8)       65.3459   60.9749   12.4630 C.3       1 UNK         0.0000 
  20232 H(1)       63.8736   64.8685   11.3746 H         1 UNK         0.0000 
  20233 H(2)       63.8563   67.3193   11.3587 H         1 UNK         0.0000 
  20234 H(3)       67.7159   67.3787   13.2386 H         1 UNK         0.0000 
  20235 H(4)       67.7287   64.9084   13.2530 H         1 UNK         0.0000 
  20236 H(5)       66.5859   69.2613   12.4649 H         1 UNK         0.0000 
  20237 H(6)       66.8217   62.9509   12.5580 H         1 UNK         0.0000 
  20238 H(7)       65.2676   60.5118   11.5138 H         1 UNK         0.0000 
  20239 H(8)       66.3426   60.8768   12.8070 H         1 UNK         0.0000 
  20240 H(9)       64.6654   60.4572   13.0878 H         1 UNK         0.0000 
  20241 O(1)       70.0463   77.0943   13.4097 O.3       1 UNK         0.0000 
  20242 O(2)       68.0485   75.8542   19.4537 O.2       1 UNK         0.0000 
  20243 N(1)       70.2297   75.8036   18.8228 N.am      1 UNK         0.0000 
  20244 C(1)       70.1302   76.1625   17.4599 C.ar      1 UNK         0.0000 
  20245 C(2)       69.0481   76.8484   16.9087 C.ar      1 UNK         0.0000 
  20246 C(3)       69.0410   77.1572   15.5516 C.ar      1 UNK         0.0000 
  20247 C(4)       70.1110   76.7945   14.7376 C.ar      1 UNK         0.0000 
  20248 C(5)       71.2067   76.1361   15.2947 C.ar      1 UNK         0.0000 
  20249 C(6)       71.2120   75.8232   16.6465 C.ar      1 UNK         0.0000 
  20250 C(7)       69.2389   75.6508   19.7163 C.2       1 UNK         0.0000 
  20251 C(8)       69.6797   75.2181   21.0890 C.3       1 UNK         0.0000 
  20252 H(1)       68.2075   77.1341   17.5290 H         1 UNK         0.0000 
  20253 H(2)       68.1902   77.6871   15.1413 H         1 UNK         0.0000 
  20254 H(3)       72.0498   75.8660   14.6710 H         1 UNK         0.0000 
  20255 H(4)       72.0626   75.3102   17.0780 H         1 UNK         0.0000 
  20256 H(5)       70.9198   77.0338   13.0039 H         1 UNK         0.0000 
  20257 H(6)       71.1556   75.5589   19.1403 H         1 UNK         0.0000 
  20258 H(7)       69.6015   76.0426   21.7490 H         1 UNK         0.0000 
  20259 H(8)       70.6765   74.8610   21.1093 H         1 UNK         0.0000 
  20260 H(9)       68.9993   74.4950   21.4570 H         1 UNK         0.0000 
  20261 O(1)       74.3998   65.7728   16.5945 O.3       1 UNK         0.0000 
  20262 O(2)       76.3976   71.9416   16.7103 O.2       1 UNK         0.0000 
  20263 N(1)       74.2165   71.3372   16.5226 N.am      1 UNK         0.0000 
  20264 C(1)       74.3160   69.9288   16.5738 C.ar      1 UNK         0.0000 
  20265 C(2)       75.3981   69.2405   17.1221 C.ar      1 UNK         0.0000 
  20266 C(3)       75.4051   67.8487   17.1257 C.ar      1 UNK         0.0000 
  20267 C(4)       74.3351   67.1341   16.5933 C.ar      1 UNK         0.0000 
  20268 C(5)       73.2395   67.8221   16.0731 C.ar      1 UNK         0.0000 
  20269 C(6)       73.2342   69.2096   16.0644 C.ar      1 UNK         0.0000 
  20270 C(7)       75.2073   72.2425   16.5694 C.2       1 UNK         0.0000 
  20271 C(8)       74.7664   73.6766   16.4484 C.3       1 UNK         0.0000 
  20272 H(1)       76.2386   69.7831   17.5368 H         1 UNK         0.0000 
  20273 H(2)       76.2560   67.3323   17.5527 H         1 UNK         0.0000 
  20274 H(3)       72.3963   67.2728   15.6728 H         1 UNK         0.0000 
  20275 H(4)       72.3836   69.7431   15.6585 H         1 UNK         0.0000 
  20276 H(5)       73.5264   65.3902   16.4465 H         1 UNK         0.0000 
  20277 H(6)       73.2905   71.7007   16.3534 H         1 UNK         0.0000 
  20278 H(7)       74.8447   74.1397   17.3976 H         1 UNK         0.0000 
  20279 H(8)       73.7696   73.7748   16.1044 H         1 UNK         0.0000 
  20280 H(9)       75.4469   74.1943   15.8236 H         1 UNK         0.0000 
  20281 O(1)       70.0659   63.2882   22.6641 O.3       1 UNK         0.0000 
  20282 O(2)       72.0638   64.5283   16.6201 O.2       1 UNK         0.0000 
  20283 N(1)       69.8826   64.5789   17.2510 N.am      1 UNK         0.0000 
  20284 C(1)       69.9821   64.2200   18.6139 C.ar      1 UNK         0.0000 
  20285 C(2)       71.0642   63.5341   19.1651 C.ar      1 UNK         0.0000 
  20286 C(3)       71.0713   63.2253   20.5223 C.ar      1 UNK         0.0000 
  20287 C(4)       70.0012   63.5880   21.3362 C.ar      1 UNK         0.0000 
  20288 C(5)       68.9056   64.2464   20.7791 C.ar      1 UNK         0.0000 
  20289 C(6)       68.9003   64.5593   19.4273 C.ar      1 UNK         0.0000 
  20290 C(7)       70.8734   64.7317   16.3575 C.2       1 UNK         0.0000 
  20291 C(8)       70.4325   65.1644   14.9848 C.3       1 UNK         0.0000 
  20292 H(1)       71.9048   63.2484   18.5448 H         1 UNK         0.0000 
  20293 H(2)       71.9221   62.6954   20.9325 H         1 UNK         0.0000 
  20294 H(3)       68.0624   64.5165   21.4028 H         1 UNK         0.0000 
  20295 H(4)       68.0497   65.0723   18.9958 H         1 UNK         0.0000 
  20296 H(5)       69.1925   63.3487   23.0699 H         1 UNK         0.0000 
  20297 H(6)       68.9566   64.8236   16.9335 H         1 UNK         0.0000 
  20298 H(7)       70.5108   64.3399   14.3248 H         1 UNK         0.0000 
  20299 H(8)       69.4357   65.5215   14.9645 H         1 UNK         0.0000 
  20300 H(9)       71.1130   65.8875   14.6168 H         1 UNK         0.0000 
  20301 O(1)       72.7894   74.6097   19.4793 O.3       1 UNK         0.0000 
  20302 O(2)       70.7916   68.4409   19.3635 O.2       1 UNK         0.0000 
  20303 N(1)       72.9728   69.0453   19.5512 N.am      1 UNK         0.0000 
  20304 C(1)       72.8733   70.4537   19.5000 C.ar      1 UNK         0.0000 
  20305 C(2)       71.7912   71.1420   18.9517 C.ar      1 UNK         0.0000 
  20306 C(3)       71.7841   72.5338   18.9482 C.ar      1 UNK         0.0000 
  20307 C(4)       72.8542   73.2484   19.4805 C.ar      1 UNK         0.0000 
  20308 C(5)       73.9498   72.5605   20.0007 C.ar      1 UNK         0.0000 
  20309 C(6)       73.9551   71.1729   20.0094 C.ar      1 UNK         0.0000 
  20310 C(7)       71.9820   68.1400   19.5044 C.2       1 UNK         0.0000 
  20311 C(8)       72.4229   66.7059   19.6254 C.3       1 UNK         0.0000 
  20312 H(1)       70.9506   70.5994   18.5370 H         1 UNK         0.0000 
  20313 H(2)       70.9333   73.0502   18.5211 H         1 UNK         0.0000 
  20314 H(3)       74.7929   73.1097   20.4010 H         1 UNK         0.0000 
  20315 H(4)       74.8057   70.6394   20.4154 H         1 UNK         0.0000 
  20316 H(5)       73.6629   74.9923   19.6273 H         1 UNK         0.0000 
  20317 H(6)       73.8987   68.6818   19.7204 H         1 UNK         0.0000 
  20318 H(7)       72.3446   66.2428   18.6762 H         1 UNK         0.0000 
  20319 H(8)       73.4196   66.6077   19.9694 H         1 UNK         0.0000 
  20320 H(9)       71.7424   66.1882   20.2502 H         1 UNK         0.0000 
  20321 O(1)       68.4556   68.1430   20.5721 O.3       1 UNK         0.0000 
  20322 O(2)       66.4577   66.9029   26.6161 O.2       1 UNK         0.0000 
  20323 N(1)       68.6389   66.8522   25.9852 N.am      1 UNK         0.0000 
  20324 C(1)       68.5394   67.2112   24.6223 C.ar      1 UNK         0.0000 
  20325 C(2)       67.4573   67.8970   24.0711 C.ar      1 UNK         0.0000 
  20326 C(3)       67.4502   68.2058   22.7140 C.ar      1 UNK         0.0000 
  20327 C(4)       68.5203   67.8431   21.9000 C.ar      1 UNK         0.0000 
  20328 C(5)       69.6159   67.1848   22.4571 C.ar      1 UNK         0.0000 
  20329 C(6)       69.6212   66.8719   23.8089 C.ar      1 UNK         0.0000 
  20330 C(7)       67.6481   66.6994   26.8787 C.2       1 UNK         0.0000 
  20331 C(8)       68.0890   66.2668   28.2514 C.3       1 UNK         0.0000 
  20332 H(1)       66.6167   68.1827   24.6914 H         1 UNK         0.0000 
  20333 H(2)       66.5994   68.7357   22.3037 H         1 UNK         0.0000 
  20334 H(3)       70.4590   66.9147   21.8334 H         1 UNK         0.0000 
  20335 H(4)       70.4718   66.3588   24.2404 H         1 UNK         0.0000 
  20336 H(5)       69.3290   68.0824   20.1663 H         1 UNK         0.0000 
  20337 H(6)       69.5648   66.6075   26.3027 H         1 UNK         0.0000 
  20338 H(7)       68.0107   67.0912   28.9114 H         1 UNK         0.0000 
  20339 H(8)       69.0857   65.9096   28.2717 H         1 UNK         0.0000 
  20340 H(9)       67.4085   65.5437   28.6194 H         1 UNK         0.0000 
  20341 O(1)       67.3228   71.5038   23.7569 O.3       1 UNK         0.0000 
  20342 O(2)       69.3206   77.6726   23.8727 O.2       1 UNK         0.0000 
  20343 N(1)       67.1395   77.0682   23.6850 N.am      1 UNK         0.0000 
  20344 C(1)       67.2390   75.6597   23.7362 C.ar      1 UNK         0.0000 
  20345 C(2)       68.3211   74.9715   24.2845 C.ar      1 UNK         0.0000 
  20346 C(3)       68.3281   73.5797   24.2881 C.ar      1 UNK         0.0000 
  20347 C(4)       67.2581   72.8651   23.7557 C.ar      1 UNK         0.0000 
  20348 C(5)       66.1625   73.5530   23.2355 C.ar      1 UNK         0.0000 
  20349 C(6)       66.1572   74.9406   23.2268 C.ar      1 UNK         0.0000 
  20350 C(7)       68.1303   77.9735   23.7318 C.2       1 UNK         0.0000 
  20351 C(8)       67.6894   79.4076   23.6108 C.3       1 UNK         0.0000 
  20352 H(1)       69.1616   75.5140   24.6992 H         1 UNK         0.0000 
  20353 H(2)       69.1790   73.0632   24.7151 H         1 UNK         0.0000 
  20354 H(3)       65.3193   73.0038   22.8352 H         1 UNK         0.0000 
  20355 H(4)       65.3066   75.4741   22.8209 H         1 UNK         0.0000 
  20356 H(5)       66.4494   71.1212   23.6089 H         1 UNK         0.0000 
  20357 H(6)       66.2135   77.4316   23.5158 H         1 UNK         0.0000 
  20358 H(7)       67.7677   79.8707   24.5600 H         1 UNK         0.0000 
  20359 H(8)       66.6926   79.5057   23.2668 H         1 UNK         0.0000 
  20360 H(9)       68.3699   79.9253   22.9860 H         1 UNK         0.0000 
  20361 O(1)       71.6567   66.5086    8.3393 O.3       1 UNK         0.0000 
  20362 O(2)       73.6545   67.7487    2.2953 O.2       1 UNK         0.0000 
  20363 N(1)       71.4734   67.7993    2.9262 N.am      1 UNK         0.0000 
  20364 C(1)       71.5728   67.4404    4.2891 C.ar      1 UNK         0.0000 
  20365 C(2)       72.6550   66.7545    4.8403 C.ar      1 UNK         0.0000 
  20366 C(3)       72.6620   66.4457    6.1975 C.ar      1 UNK         0.0000 
  20367 C(4)       71.5920   66.8084    7.0114 C.ar      1 UNK         0.0000 
  20368 C(5)       70.4964   67.4668    6.4543 C.ar      1 UNK         0.0000 
  20369 C(6)       70.4911   67.7797    5.1025 C.ar      1 UNK         0.0000 
  20370 C(7)       72.4642   67.9521    2.0327 C.2       1 UNK         0.0000 
  20371 C(8)       72.0233   68.3848    0.6600 C.3       1 UNK         0.0000 
  20372 H(1)       73.4955   66.4688    4.2200 H         1 UNK         0.0000 
  20373 H(2)       73.5128   65.9158    6.6077 H         1 UNK         0.0000 
  20374 H(3)       69.6532   67.7369    7.0780 H         1 UNK         0.0000 
  20375 H(4)       69.6405   68.2927    4.6710 H         1 UNK         0.0000 
  20376 H(5)       70.7833   66.5691    8.7451 H         1 UNK         0.0000 
  20377 H(6)       70.5474   68.0440    2.6087 H         1 UNK         0.0000 
  20378 H(7)       72.1016   67.5603    0.0000 H         1 UNK         0.0000 
  20379 H(8)       71.0265   68.7419    0.6397 H         1 UNK         0.0000 
  20380 H(9)       72.7038   69.1079    0.2920 H         1 UNK         0.0000 
  20381 O(1)       74.3802   77.8301    5.1545 O.3       1 UNK         0.0000 
  20382 O(2)       72.3824   71.6613    5.0387 O.2       1 UNK         0.0000 
  20383 N(1)       74.5636   72.2657    5.2264 N.am      1 UNK         0.0000 
  20384 C(1)       74.4641   73.6741    5.1752 C.ar      1 UNK         0.0000 
  20385 C(2)       73.3819   74.3624    4.6269 C.ar      1 UNK         0.0000 
  20386 C(3)       73.3749   75.7542    4.6234 C.ar      1 UNK         0.0000 
  20387 C(4)       74.4449   76.4688    5.1557 C.ar      1 UNK         0.0000 
  20388 C(5)       75.5405   75.7809    5.6759 C.ar      1 UNK         0.0000 
  20389 C(6)       75.5459   74.3933    5.6846 C.ar      1 UNK         0.0000 
  20390 C(7)       73.5728   71.3604    5.1796 C.2       1 UNK         0.0000 
  20391 C(8)       74.0136   69.9263    5.3006 C.3       1 UNK         0.0000 
  20392 H(1)       72.5414   73.8198    4.2122 H         1 UNK         0.0000 
  20393 H(2)       72.5241   76.2706    4.1963 H         1 UNK         0.0000 
  20394 H(3)       76.3837   76.3301    6.0762 H         1 UNK         0.0000 
  20395 H(4)       76.3965   73.8598    6.0906 H         1 UNK         0.0000 
  20396 H(5)       75.2537   78.2127    5.3025 H         1 UNK         0.0000 
  20397 H(6)       75.4895   71.9022    5.3956 H         1 UNK         0.0000 
  20398 H(7)       73.9354   69.4632    4.3514 H         1 UNK         0.0000 
  20399 H(8)       75.0104   69.8281    5.6446 H         1 UNK         0.0000 
  20400 H(9)       73.3332   69.4086    5.9254 H         1 UNK         0.0000 
  20401 O(1)       71.6371   86.0457    6.2473 O.3       1 UNK         0.0000 
  20402 O(2)       69.6393   84.8056   12.2913 O.2       1 UNK         0.0000 
  20403 N(1)       71.8204   84.7550   11.6604 N.am      1 UNK         0.0000 
  20404 C(1)       71.7210   85.1139   10.2975 C.ar      1 UNK         0.0000 
  20405 C(2)       70.6388   85.7998    9.7463 C.ar      1 UNK         0.0000 
  20406 C(3)       70.6318   86.1085    8.3892 C.ar      1 UNK         0.0000 
  20407 C(4)       71.7018   85.7459    7.5752 C.ar      1 UNK         0.0000 
  20408 C(5)       72.7974   85.0875    8.1323 C.ar      1 UNK         0.0000 
  20409 C(6)       72.8027   84.7746    9.4841 C.ar      1 UNK         0.0000 
  20410 C(7)       70.8297   84.6021   12.5539 C.2       1 UNK         0.0000 
  20411 C(8)       71.2705   84.1695   13.9266 C.3       1 UNK         0.0000 
  20412 H(1)       69.7983   86.0854   10.3666 H         1 UNK         0.0000 
  20413 H(2)       69.7810   86.6384    7.9789 H         1 UNK         0.0000 
  20414 H(3)       73.6406   84.8174    7.5086 H         1 UNK         0.0000 
  20415 H(4)       73.6534   84.2615    9.9156 H         1 UNK         0.0000 
  20416 H(5)       72.5106   85.9852    5.8415 H         1 UNK         0.0000 
  20417 H(6)       72.7464   84.5102   11.9779 H         1 UNK         0.0000 
  20418 H(7)       71.1923   84.9940   14.5866 H         1 UNK         0.0000 
  20419 H(8)       72.2673   83.8124   13.9469 H         1 UNK         0.0000 
  20420 H(9)       70.5900   83.4464   14.2946 H         1 UNK         0.0000 
  20421 O(1)       75.9906   74.7242    9.4321 O.3       1 UNK         0.0000 
  20422 O(2)       77.9884   80.8930    9.5479 O.2       1 UNK         0.0000 
  20423 N(1)       75.8073   80.2886    9.3602 N.am      1 UNK         0.0000 
  20424 C(1)       75.9067   78.8801    9.4114 C.ar      1 UNK         0.0000 
  20425 C(2)       76.9889   78.1919    9.9597 C.ar      1 UNK         0.0000 
  20426 C(3)       76.9959   76.8001    9.9633 C.ar      1 UNK         0.0000 
  20427 C(4)       75.9259   76.0855    9.4309 C.ar      1 UNK         0.0000 
  20428 C(5)       74.8303   76.7734    8.9107 C.ar      1 UNK         0.0000 
  20429 C(6)       74.8250   78.1610    8.9020 C.ar      1 UNK         0.0000 
  20430 C(7)       76.7981   81.1939    9.4070 C.2       1 UNK         0.0000 
  20431 C(8)       76.3572   82.6280    9.2860 C.3       1 UNK         0.0000 
  20432 H(1)       77.8294   78.7344   10.3744 H         1 UNK         0.0000 
  20433 H(2)       77.8467   76.2836   10.3903 H         1 UNK         0.0000 
  20434 H(3)       73.9871   76.2242    8.5104 H         1 UNK         0.0000 
  20435 H(4)       73.9744   78.6945    8.4961 H         1 UNK         0.0000 
  20436 H(5)       75.1172   74.3416    9.2841 H         1 UNK         0.0000 
  20437 H(6)       74.8813   80.6520    9.1910 H         1 UNK         0.0000 
  20438 H(7)       76.4355   83.0911   10.2352 H         1 UNK         0.0000 
  20439 H(8)       75.3604   82.7261    8.9420 H         1 UNK         0.0000 
  20440 H(9)       77.0377   83.1457    8.6612 H         1 UNK         0.0000 
  20441 O(1)       66.1705   86.9219   15.5017 O.3       1 UNK         0.0000 
  20442 O(2)       68.1683   88.1620    9.4577 O.2       1 UNK         0.0000 
  20443 N(1)       65.9872   88.2126   10.0886 N.am      1 UNK         0.0000 
  20444 C(1)       66.0866   87.8537   11.4515 C.ar      1 UNK         0.0000 
  20445 C(2)       67.1688   87.1678   12.0027 C.ar      1 UNK         0.0000 
  20446 C(3)       67.1758   86.8590   13.3599 C.ar      1 UNK         0.0000 
  20447 C(4)       66.1058   87.2217   14.1738 C.ar      1 UNK         0.0000 
  20448 C(5)       65.0102   87.8801   13.6167 C.ar      1 UNK         0.0000 
  20449 C(6)       65.0049   88.1930   12.2649 C.ar      1 UNK         0.0000 
  20450 C(7)       66.9780   88.3654    9.1951 C.2       1 UNK         0.0000 
  20451 C(8)       66.5371   88.7981    7.8224 C.3       1 UNK         0.0000 
  20452 H(1)       68.0093   86.8821   11.3824 H         1 UNK         0.0000 
  20453 H(2)       68.0266   86.3291   13.7701 H         1 UNK         0.0000 
  20454 H(3)       64.1670   88.1502   14.2404 H         1 UNK         0.0000 
  20455 H(4)       64.1543   88.7060   11.8334 H         1 UNK         0.0000 
  20456 H(5)       65.2971   86.9824   15.9075 H         1 UNK         0.0000 
  20457 H(6)       65.0612   88.4573    9.7711 H         1 UNK         0.0000 
  20458 H(7)       66.6154   87.9736    7.1624 H         1 UNK         0.0000 
  20459 H(8)       65.5403   89.1552    7.8021 H         1 UNK         0.0000 
  20460 H(9)       67.2176   89.5212    7.4544 H         1 UNK         0.0000 
  20461 O(1)       67.3032   83.5611   12.3169 O.3       1 UNK         0.0000 
  20462 O(2)       65.3054   77.3923   12.2011 O.2       1 UNK         0.0000 
  20463 N(1)       67.4866   77.9967   12.3888 N.am      1 UNK         0.0000 
  20464 C(1)       67.3871   79.4051   12.3376 C.ar      1 UNK         0.0000 
  20465 C(2)       66.3049   80.0933   11.7893 C.ar      1 UNK         0.0000 
  20466 C(3)       66.2979   81.4851   11.7858 C.ar      1 UNK         0.0000 
  20467 C(4)       67.3679   82.1997   12.3181 C.ar      1 UNK         0.0000 
  20468 C(5)       68.4635   81.5118   12.8383 C.ar      1 UNK         0.0000 
  20469 C(6)       68.4689   80.1243   12.8470 C.ar      1 UNK         0.0000 
  20470 C(7)       66.4958   77.0914   12.3420 C.2       1 UNK         0.0000 
  20471 C(8)       66.9366   75.6572   12.4630 C.3       1 UNK         0.0000 
  20472 H(1)       65.4644   79.5508   11.3746 H         1 UNK         0.0000 
  20473 H(2)       65.4471   82.0016   11.3587 H         1 UNK         0.0000 
  20474 H(3)       69.3067   82.0611   13.2386 H         1 UNK         0.0000 
  20475 H(4)       69.3195   79.5908   13.2530 H         1 UNK         0.0000 
  20476 H(5)       68.1767   83.9437   12.4649 H         1 UNK         0.0000 
  20477 H(6)       68.4125   77.6332   12.5580 H         1 UNK         0.0000 
  20478 H(7)       66.8584   75.1941   11.5138 H         1 UNK         0.0000 
  20479 H(8)       67.9334   75.5591   12.8070 H         1 UNK         0.0000 
  20480 H(9)       66.2562   75.1396   13.0878 H         1 UNK         0.0000 
  20481 O(1)       71.6371   91.7766   13.4097 O.3       1 UNK         0.0000 
  20482 O(2)       69.6393   90.5366   19.4537 O.2       1 UNK         0.0000 
  20483 N(1)       71.8204   90.4859   18.8228 N.am      1 UNK         0.0000 
  20484 C(1)       71.7210   90.8448   17.4599 C.ar      1 UNK         0.0000 
  20485 C(2)       70.6388   91.5307   16.9087 C.ar      1 UNK         0.0000 
  20486 C(3)       70.6318   91.8395   15.5516 C.ar      1 UNK         0.0000 
  20487 C(4)       71.7018   91.4768   14.7376 C.ar      1 UNK         0.0000 
  20488 C(5)       72.7974   90.8185   15.2947 C.ar      1 UNK         0.0000 
  20489 C(6)       72.8027   90.5056   16.6465 C.ar      1 UNK         0.0000 
  20490 C(7)       70.8297   90.3331   19.7163 C.2       1 UNK         0.0000 
  20491 C(8)       71.2705   89.9005   21.0890 C.3       1 UNK         0.0000 
  20492 H(1)       69.7983   91.8164   17.5290 H         1 UNK         0.0000 
  20493 H(2)       69.7810   92.3694   15.1413 H         1 UNK         0.0000 
  20494 H(3)       73.6406   90.5484   14.6710 H         1 UNK         0.0000 
  20495 H(4)       73.6534   89.9925   17.0780 H         1 UNK         0.0000 
  20496 H(5)       72.5106   91.7161   13.0039 H         1 UNK         0.0000 
  20497 H(6)       72.7464   90.2412   19.1403 H         1 UNK         0.0000 
  20498 H(7)       71.1923   90.7249   21.7490 H         1 UNK         0.0000 
  20499 H(8)       72.2673   89.5433   21.1093 H         1 UNK         0.0000 
  20500 H(9)       70.5900   89.1774   21.4570 H         1 UNK         0.0000 
  20501 O(1)       75.9906   80.4552   16.5945 O.3       1 UNK         0.0000 
  20502 O(2)       77.9884   86.6239   16.7103 O.2       1 UNK         0.0000 
  20503 N(1)       75.8073   86.0195   16.5226 N.am      1 UNK         0.0000 
  20504 C(1)       75.9067   84.6111   16.5738 C.ar      1 UNK         0.0000 
  20505 C(2)       76.9889   83.9229   17.1221 C.ar      1 UNK         0.0000 
  20506 C(3)       76.9959   82.5311   17.1257 C.ar      1 UNK         0.0000 
  20507 C(4)       75.9259   81.8165   16.5933 C.ar      1 UNK         0.0000 
  20508 C(5)       74.8303   82.5044   16.0731 C.ar      1 UNK         0.0000 
  20509 C(6)       74.8250   83.8919   16.0644 C.ar      1 UNK         0.0000 
  20510 C(7)       76.7981   86.9248   16.5694 C.2       1 UNK         0.0000 
  20511 C(8)       76.3572   88.3590   16.4484 C.3       1 UNK         0.0000 
  20512 H(1)       77.8294   84.4654   17.5368 H         1 UNK         0.0000 
  20513 H(2)       77.8467   82.0146   17.5527 H         1 UNK         0.0000 
  20514 H(3)       73.9871   81.9551   15.6728 H         1 UNK         0.0000 
  20515 H(4)       73.9744   84.4254   15.6585 H         1 UNK         0.0000 
  20516 H(5)       75.1172   80.0725   16.4465 H         1 UNK         0.0000 
  20517 H(6)       74.8813   86.3830   16.3534 H         1 UNK         0.0000 
  20518 H(7)       76.4355   88.8221   17.3976 H         1 UNK         0.0000 
  20519 H(8)       75.3604   88.4571   16.1044 H         1 UNK         0.0000 
  20520 H(9)       77.0377   88.8766   15.8236 H         1 UNK         0.0000 
  20521 O(1)       71.6567   77.9705   22.6641 O.3       1 UNK         0.0000 
  20522 O(2)       73.6545   79.2106   16.6201 O.2       1 UNK         0.0000 
  20523 N(1)       71.4734   79.2612   17.2510 N.am      1 UNK         0.0000 
  20524 C(1)       71.5728   78.9023   18.6139 C.ar      1 UNK         0.0000 
  20525 C(2)       72.6550   78.2164   19.1651 C.ar      1 UNK         0.0000 
  20526 C(3)       72.6620   77.9077   20.5223 C.ar      1 UNK         0.0000 
  20527 C(4)       71.5920   78.2703   21.3362 C.ar      1 UNK         0.0000 
  20528 C(5)       70.4964   78.9287   20.7791 C.ar      1 UNK         0.0000 
  20529 C(6)       70.4911   79.2416   19.4273 C.ar      1 UNK         0.0000 
  20530 C(7)       72.4642   79.4141   16.3575 C.2       1 UNK         0.0000 
  20531 C(8)       72.0233   79.8467   14.9848 C.3       1 UNK         0.0000 
  20532 H(1)       73.4955   77.9308   18.5448 H         1 UNK         0.0000 
  20533 H(2)       73.5128   77.3778   20.9325 H         1 UNK         0.0000 
  20534 H(3)       69.6532   79.1988   21.4028 H         1 UNK         0.0000 
  20535 H(4)       69.6405   79.7547   18.9958 H         1 UNK         0.0000 
  20536 H(5)       70.7833   78.0310   23.0699 H         1 UNK         0.0000 
  20537 H(6)       70.5474   79.5060   16.9335 H         1 UNK         0.0000 
  20538 H(7)       72.1016   79.0222   14.3248 H         1 UNK         0.0000 
  20539 H(8)       71.0265   80.2038   14.9645 H         1 UNK         0.0000 
  20540 H(9)       72.7038   80.5698   14.6168 H         1 UNK         0.0000 
  20541 O(1)       74.3802   89.2920   19.4793 O.3       1 UNK         0.0000 
  20542 O(2)       72.3824   83.1232   19.3635 O.2       1 UNK         0.0000 
  20543 N(1)       74.5636   83.7276   19.5512 N.am      1 UNK         0.0000 
  20544 C(1)       74.4641   85.1361   19.5000 C.ar      1 UNK         0.0000 
  20545 C(2)       73.3819   85.8243   18.9517 C.ar      1 UNK         0.0000 
  20546 C(3)       73.3749   87.2161   18.9482 C.ar      1 UNK         0.0000 
  20547 C(4)       74.4449   87.9307   19.4805 C.ar      1 UNK         0.0000 
  20548 C(5)       75.5405   87.2428   20.0007 C.ar      1 UNK         0.0000 
  20549 C(6)       75.5459   85.8552   20.0094 C.ar      1 UNK         0.0000 
  20550 C(7)       73.5728   82.8223   19.5044 C.2       1 UNK         0.0000 
  20551 C(8)       74.0136   81.3882   19.6254 C.3       1 UNK         0.0000 
  20552 H(1)       72.5414   85.2818   18.5370 H         1 UNK         0.0000 
  20553 H(2)       72.5241   87.7326   18.5211 H         1 UNK         0.0000 
  20554 H(3)       76.3837   87.7920   20.4010 H         1 UNK         0.0000 
  20555 H(4)       76.3965   85.3217   20.4154 H         1 UNK         0.0000 
  20556 H(5)       75.2537   89.6746   19.6273 H         1 UNK         0.0000 
  20557 H(6)       75.4895   83.3642   19.7204 H         1 UNK         0.0000 
  20558 H(7)       73.9354   80.9251   18.6762 H         1 UNK         0.0000 
  20559 H(8)       75.0104   81.2901   19.9694 H         1 UNK         0.0000 
  20560 H(9)       73.3332   80.8705   20.2502 H         1 UNK         0.0000 
  20561 O(1)       70.0463   82.8253   20.5721 O.3       1 UNK         0.0000 
  20562 O(2)       68.0485   81.5852   26.6161 O.2       1 UNK         0.0000 
  20563 N(1)       70.2297   81.5346   25.9852 N.am      1 UNK         0.0000 
  20564 C(1)       70.1302   81.8935   24.6223 C.ar      1 UNK         0.0000 
  20565 C(2)       69.0481   82.5794   24.0711 C.ar      1 UNK         0.0000 
  20566 C(3)       69.0410   82.8881   22.7140 C.ar      1 UNK         0.0000 
  20567 C(4)       70.1110   82.5255   21.9000 C.ar      1 UNK         0.0000 
  20568 C(5)       71.2067   81.8671   22.4571 C.ar      1 UNK         0.0000 
  20569 C(6)       71.2120   81.5542   23.8089 C.ar      1 UNK         0.0000 
  20570 C(7)       69.2389   81.3817   26.8787 C.2       1 UNK         0.0000 
  20571 C(8)       69.6797   80.9491   28.2514 C.3       1 UNK         0.0000 
  20572 H(1)       68.2075   82.8650   24.6914 H         1 UNK         0.0000 
  20573 H(2)       68.1902   83.4180   22.3037 H         1 UNK         0.0000 
  20574 H(3)       72.0498   81.5970   21.8334 H         1 UNK         0.0000 
  20575 H(4)       72.0626   81.0412   24.2404 H         1 UNK         0.0000 
  20576 H(5)       70.9198   82.7648   20.1663 H         1 UNK         0.0000 
  20577 H(6)       71.1556   81.2898   26.3027 H         1 UNK         0.0000 
  20578 H(7)       69.6015   81.7736   28.9114 H         1 UNK         0.0000 
  20579 H(8)       70.6765   80.5920   28.2717 H         1 UNK         0.0000 
  20580 H(9)       68.9993   80.2260   28.6194 H         1 UNK         0.0000 
  20581 O(1)       68.9136   86.1861   23.7569 O.3       1 UNK         0.0000 
  20582 O(2)       70.9114   92.3549   23.8727 O.2       1 UNK         0.0000 
  20583 N(1)       68.7303   91.7505   23.6850 N.am      1 UNK         0.0000 
  20584 C(1)       68.8297   90.3421   23.7362 C.ar      1 UNK         0.0000 
  20585 C(2)       69.9119   89.6538   24.2845 C.ar      1 UNK         0.0000 
  20586 C(3)       69.9189   88.2620   24.2881 C.ar      1 UNK         0.0000 
  20587 C(4)       68.8489   87.5474   23.7557 C.ar      1 UNK         0.0000 
  20588 C(5)       67.7533   88.2353   23.2355 C.ar      1 UNK         0.0000 
  20589 C(6)       67.7480   89.6229   23.2268 C.ar      1 UNK         0.0000 
  20590 C(7)       69.7211   92.6558   23.7318 C.2       1 UNK         0.0000 
  20591 C(8)       69.2802   94.0899   23.6108 C.3       1 UNK         0.0000 
  20592 H(1)       70.7524   90.1964   24.6992 H         1 UNK         0.0000 
  20593 H(2)       70.7697   87.7456   24.7151 H         1 UNK         0.0000 
  20594 H(3)       66.9101   87.6861   22.8352 H         1 UNK         0.0000 
  20595 H(4)       66.8974   90.1564   22.8209 H         1 UNK         0.0000 
  20596 H(5)       68.0402   85.8035   23.6089 H         1 UNK         0.0000 
  20597 H(6)       67.8043   92.1140   23.5158 H         1 UNK         0.0000 
  20598 H(7)       69.3585   94.5530   24.5600 H         1 UNK         0.0000 
  20599 H(8)       68.2834   94.1881   23.2668 H         1 UNK         0.0000 
  20600 H(9)       69.9607   94.6076   22.9860 H         1 UNK         0.0000 
  20601 O(1)       73.2475   81.1909    8.3393 O.3       1 UNK         0.0000 
  20602 O(2)       75.2453   82.4310    2.2953 O.2       1 UNK         0.0000 
  20603 N(1)       73.0642   82.4816    2.9262 N.am      1 UNK         0.0000 
  20604 C(1)       73.1636   82.1227    4.2891 C.ar      1 UNK         0.0000 
  20605 C(2)       74.2458   81.4368    4.8403 C.ar      1 UNK         0.0000 
  20606 C(3)       74.2528   81.1281    6.1975 C.ar      1 UNK         0.0000 
  20607 C(4)       73.1828   81.4907    7.0114 C.ar      1 UNK         0.0000 
  20608 C(5)       72.0872   82.1491    6.4543 C.ar      1 UNK         0.0000 
  20609 C(6)       72.0819   82.4620    5.1025 C.ar      1 UNK         0.0000 
  20610 C(7)       74.0550   82.6345    2.0327 C.2       1 UNK         0.0000 
  20611 C(8)       73.6141   83.0671    0.6600 C.3       1 UNK         0.0000 
  20612 H(1)       75.0863   81.1512    4.2200 H         1 UNK         0.0000 
  20613 H(2)       75.1036   80.5982    6.6077 H         1 UNK         0.0000 
  20614 H(3)       71.2440   82.4192    7.0780 H         1 UNK         0.0000 
  20615 H(4)       71.2313   82.9751    4.6710 H         1 UNK         0.0000 
  20616 H(5)       72.3741   81.2514    8.7451 H         1 UNK         0.0000 
  20617 H(6)       72.1382   82.7264    2.6087 H         1 UNK         0.0000 
  20618 H(7)       73.6924   82.2426    0.0000 H         1 UNK         0.0000 
  20619 H(8)       72.6173   83.4242    0.6397 H         1 UNK         0.0000 
  20620 H(9)       74.2946   83.7902    0.2920 H         1 UNK         0.0000 
  20621 O(1)       75.9710   92.5124    5.1545 O.3       1 UNK         0.0000 
  20622 O(2)       73.9732   86.3436    5.0387 O.2       1 UNK         0.0000 
  20623 N(1)       76.1543   86.9480    5.2264 N.am      1 UNK         0.0000 
  20624 C(1)       76.0549   88.3565    5.1752 C.ar      1 UNK         0.0000 
  20625 C(2)       74.9727   89.0447    4.6269 C.ar      1 UNK         0.0000 
  20626 C(3)       74.9657   90.4365    4.6234 C.ar      1 UNK         0.0000 
  20627 C(4)       76.0357   91.1511    5.1557 C.ar      1 UNK         0.0000 
  20628 C(5)       77.1313   90.4632    5.6759 C.ar      1 UNK         0.0000 
  20629 C(6)       77.1366   89.0756    5.6846 C.ar      1 UNK         0.0000 
  20630 C(7)       75.1636   86.0427    5.1796 C.2       1 UNK         0.0000 
  20631 C(8)       75.6044   84.6086    5.3006 C.3       1 UNK         0.0000 
  20632 H(1)       74.1322   88.5022    4.2122 H         1 UNK         0.0000 
  20633 H(2)       74.1149   90.9530    4.1963 H         1 UNK         0.0000 
  20634 H(3)       77.9745   91.0124    6.0762 H         1 UNK         0.0000 
  20635 H(4)       77.9873   88.5421    6.0906 H         1 UNK         0.0000 
  20636 H(5)       76.8444   92.8950    5.3025 H         1 UNK         0.0000 
  20637 H(6)       77.0803   86.5846    5.3956 H         1 UNK         0.0000 
  20638 H(7)       75.5262   84.1455    4.3514 H         1 UNK         0.0000 
  20639 H(8)       76.6012   84.5105    5.6446 H         1 UNK         0.0000 
  20640 H(9)       74.9239   84.0909    5.9254 H         1 UNK         0.0000 
  20641 O(1)       73.2279  100.7280    6.2473 O.3       1 UNK         0.0000 
  20642 O(2)       71.2301   99.4879   12.2913 O.2       1 UNK         0.0000 
  20643 N(1)       73.4112   99.4373   11.6604 N.am      1 UNK         0.0000 
  20644 C(1)       73.3118   99.7962   10.2975 C.ar      1 UNK         0.0000 
  20645 C(2)       72.2296  100.4821    9.7463 C.ar      1 UNK         0.0000 
  20646 C(3)       72.2226  100.7909    8.3892 C.ar      1 UNK         0.0000 
  20647 C(4)       73.2926  100.4282    7.5752 C.ar      1 UNK         0.0000 
  20648 C(5)       74.3882   99.7698    8.1323 C.ar      1 UNK         0.0000 
  20649 C(6)       74.3935   99.4569    9.4841 C.ar      1 UNK         0.0000 
  20650 C(7)       72.4205   99.2845   12.5539 C.2       1 UNK         0.0000 
  20651 C(8)       72.8613   98.8518   13.9266 C.3       1 UNK         0.0000 
  20652 H(1)       71.3891  100.7678   10.3666 H         1 UNK         0.0000 
  20653 H(2)       71.3718  101.3208    7.9789 H         1 UNK         0.0000 
  20654 H(3)       75.2314   99.4997    7.5086 H         1 UNK         0.0000 
  20655 H(4)       75.2441   98.9439    9.9156 H         1 UNK         0.0000 
  20656 H(5)       74.1013  100.6675    5.8415 H         1 UNK         0.0000 
  20657 H(6)       74.3372   99.1926   11.9779 H         1 UNK         0.0000 
  20658 H(7)       72.7830   99.6763   14.5866 H         1 UNK         0.0000 
  20659 H(8)       73.8581   98.4947   13.9469 H         1 UNK         0.0000 
  20660 H(9)       72.1808   98.1287   14.2946 H         1 UNK         0.0000 
  20661 O(1)       77.5814   89.4065    9.4321 O.3       1 UNK         0.0000 
  20662 O(2)       79.5792   95.5753    9.5479 O.2       1 UNK         0.0000 
  20663 N(1)       77.3981   94.9709    9.3602 N.am      1 UNK         0.0000 
  20664 C(1)       77.4975   93.5625    9.4114 C.ar      1 UNK         0.0000 
  20665 C(2)       78.5797   92.8742    9.9597 C.ar      1 UNK         0.0000 
  20666 C(3)       78.5867   91.4824    9.9633 C.ar      1 UNK         0.0000 
  20667 C(4)       77.5167   90.7678    9.4309 C.ar      1 UNK         0.0000 
  20668 C(5)       76.4211   91.4557    8.9107 C.ar      1 UNK         0.0000 
  20669 C(6)       76.4158   92.8433    8.9020 C.ar      1 UNK         0.0000 
  20670 C(7)       78.3888   95.8762    9.4070 C.2       1 UNK         0.0000 
  20671 C(8)       77.9480   97.3103    9.2860 C.3       1 UNK         0.0000 
  20672 H(1)       79.4202   93.4168   10.3744 H         1 UNK         0.0000 
  20673 H(2)       79.4375   90.9660   10.3903 H         1 UNK         0.0000 
  20674 H(3)       75.5779   90.9065    8.5104 H         1 UNK         0.0000 
  20675 H(4)       75.5652   93.3768    8.4961 H         1 UNK         0.0000 
  20676 H(5)       76.7080   89.0239    9.2841 H         1 UNK         0.0000 
  20677 H(6)       76.4721   95.3344    9.1910 H         1 UNK         0.0000 
  20678 H(7)       78.0262   97.7734   10.2352 H         1 UNK         0.0000 
  20679 H(8)       76.9512   97.4085    8.9420 H         1 UNK         0.0000 
  20680 H(9)       78.6285   97.8280    8.6612 H         1 UNK         0.0000 
  20681 O(1)       67.7613  101.6042   15.5017 O.3       1 UNK         0.0000 
  20682 O(2)       69.7591  102.8443    9.4577 O.2       1 UNK         0.0000 
  20683 N(1)       67.5780  102.8949   10.0886 N.am      1 UNK         0.0000 
  20684 C(1)       67.6774  102.5360   11.4515 C.ar      1 UNK         0.0000 
  20685 C(2)       68.7596  101.8501   12.0027 C.ar      1 UNK         0.0000 
  20686 C(3)       68.7666  101.5414   13.3599 C.ar      1 UNK         0.0000 
  20687 C(4)       67.6966  101.9040   14.1738 C.ar      1 UNK         0.0000 
  20688 C(5)       66.6010  102.5624   13.6167 C.ar      1 UNK         0.0000 
  20689 C(6)       66.5957  102.8753   12.2649 C.ar      1 UNK         0.0000 
  20690 C(7)       68.5687  103.0478    9.1951 C.2       1 UNK         0.0000 
  20691 C(8)       68.1279  103.4804    7.8224 C.3       1 UNK         0.0000 
  20692 H(1)       69.6001  101.5645   11.3824 H         1 UNK         0.0000 
  20693 H(2)       69.6174  101.0115   13.7701 H         1 UNK         0.0000 
  20694 H(3)       65.7578  102.8325   14.2404 H         1 UNK         0.0000 
  20695 H(4)       65.7450  103.3883   11.8334 H         1 UNK         0.0000 
  20696 H(5)       66.8879  101.6647   15.9075 H         1 UNK         0.0000 
  20697 H(6)       66.6520  103.1397    9.7711 H         1 UNK         0.0000 
  20698 H(7)       68.2061  102.6559    7.1624 H         1 UNK         0.0000 
  20699 H(8)       67.1311  103.8375    7.8021 H         1 UNK         0.0000 
  20700 H(9)       68.8084  104.2035    7.4544 H         1 UNK         0.0000 
  20701 O(1)       68.8940   98.2434   12.3169 O.3       1 UNK         0.0000 
  20702 O(2)       66.8962   92.0746   12.2011 O.2       1 UNK         0.0000 
  20703 N(1)       69.0773   92.6790   12.3888 N.am      1 UNK         0.0000 
  20704 C(1)       68.9779   94.0874   12.3376 C.ar      1 UNK         0.0000 
  20705 C(2)       67.8957   94.7757   11.7893 C.ar      1 UNK         0.0000 
  20706 C(3)       67.8887   96.1675   11.7858 C.ar      1 UNK         0.0000 
  20707 C(4)       68.9587   96.8821   12.3181 C.ar      1 UNK         0.0000 
  20708 C(5)       70.0543   96.1941   12.8383 C.ar      1 UNK         0.0000 
  20709 C(6)       70.0596   94.8066   12.8470 C.ar      1 UNK         0.0000 
  20710 C(7)       68.0866   91.7737   12.3420 C.2       1 UNK         0.0000 
  20711 C(8)       68.5274   90.3396   12.4630 C.3       1 UNK         0.0000 
  20712 H(1)       67.0552   94.2331   11.3746 H         1 UNK         0.0000 
  20713 H(2)       67.0379   96.6839   11.3587 H         1 UNK         0.0000 
  20714 H(3)       70.8975   96.7434   13.2386 H         1 UNK         0.0000 
  20715 H(4)       70.9103   94.2731   13.2530 H         1 UNK         0.0000 
  20716 H(5)       69.7674   98.6260   12.4649 H         1 UNK         0.0000 
  20717 H(6)       70.0033   92.3155   12.5580 H         1 UNK         0.0000 
  20718 H(7)       68.4492   89.8765   11.5138 H         1 UNK         0.0000 
  20719 H(8)       69.5242   90.2414   12.8070 H         1 UNK         0.0000 
  20720 H(9)       67.8469   89.8219   13.0878 H         1 UNK         0.0000 
  20721 O(1)       73.2279  106.4590   13.4097 O.3       1 UNK         0.0000 
  20722 O(2)       71.2301  105.2189   19.4537 O.2       1 UNK         0.0000 
  20723 N(1)       73.4112  105.1683   18.8228 N.am      1 UNK         0.0000 
  20724 C(1)       73.3118  105.5272   17.4599 C.ar      1 UNK         0.0000 
  20725 C(2)       72.2296  106.2131   16.9087 C.ar      1 UNK         0.0000 
  20726 C(3)       72.2226  106.5218   15.5516 C.ar      1 UNK         0.0000 
  20727 C(4)       73.2926  106.1592   14.7376 C.ar      1 UNK         0.0000 
  20728 C(5)       74.3882  105.5008   15.2947 C.ar      1 UNK         0.0000 
  20729 C(6)       74.3935  105.1879   16.6465 C.ar      1 UNK         0.0000 
  20730 C(7)       72.4205  105.0154   19.7163 C.2       1 UNK         0.0000 
  20731 C(8)       72.8613  104.5828   21.0890 C.3       1 UNK         0.0000 
  20732 H(1)       71.3891  106.4987   17.5290 H         1 UNK         0.0000 
  20733 H(2)       71.3718  107.0517   15.1413 H         1 UNK         0.0000 
  20734 H(3)       75.2314  105.2307   14.6710 H         1 UNK         0.0000 
  20735 H(4)       75.2441  104.6748   17.0780 H         1 UNK         0.0000 
  20736 H(5)       74.1013  106.3985   13.0039 H         1 UNK         0.0000 
  20737 H(6)       74.3372  104.9235   19.1403 H         1 UNK         0.0000 
  20738 H(7)       72.7830  105.4073   21.7490 H         1 UNK         0.0000 
  20739 H(8)       73.8581  104.2257   21.1093 H         1 UNK         0.0000 
  20740 H(9)       72.1808  103.8597   21.4570 H         1 UNK         0.0000 
  20741 O(1)       77.5814   95.1375   16.5945 O.3       1 UNK         0.0000 
  20742 O(2)       79.5792  101.3063   16.7103 O.2       1 UNK         0.0000 
  20743 N(1)       77.3981  100.7019   16.5226 N.am      1 UNK         0.0000 
  20744 C(1)       77.4975   99.2934   16.5738 C.ar      1 UNK         0.0000 
  20745 C(2)       78.5797   98.6052   17.1221 C.ar      1 UNK         0.0000 
  20746 C(3)       78.5867   97.2134   17.1257 C.ar      1 UNK         0.0000 
  20747 C(4)       77.5167   96.4988   16.5933 C.ar      1 UNK         0.0000 
  20748 C(5)       76.4211   97.1867   16.0731 C.ar      1 UNK         0.0000 
  20749 C(6)       76.4158   98.5743   16.0644 C.ar      1 UNK         0.0000 
  20750 C(7)       78.3888  101.6072   16.5694 C.2       1 UNK         0.0000 
  20751 C(8)       77.9480  103.0413   16.4484 C.3       1 UNK         0.0000 
  20752 H(1)       79.4202   99.1477   17.5368 H         1 UNK         0.0000 
  20753 H(2)       79.4375   96.6969   17.5527 H         1 UNK         0.0000 
  20754 H(3)       75.5779   96.6375   15.6728 H         1 UNK         0.0000 
  20755 H(4)       75.5652   99.1078   15.6585 H         1 UNK         0.0000 
  20756 H(5)       76.7080   94.7549   16.4465 H         1 UNK         0.0000 
  20757 H(6)       76.4721  101.0653   16.3534 H         1 UNK         0.0000 
  20758 H(7)       78.0262  103.5044   17.3976 H         1 UNK         0.0000 
  20759 H(8)       76.9512  103.1394   16.1044 H         1 UNK         0.0000 
  20760 H(9)       78.6285  103.5590   15.8236 H         1 UNK         0.0000 
  20761 O(1)       73.2475   92.6529   22.6641 O.3       1 UNK         0.0000 
  20762 O(2)       75.2453   93.8929   16.6201 O.2       1 UNK         0.0000 
  20763 N(1)       73.0642   93.9436   17.2510 N.am      1 UNK         0.0000 
  20764 C(1)       73.1636   93.5847   18.6139 C.ar      1 UNK         0.0000 
  20765 C(2)       74.2458   92.8988   19.1651 C.ar      1 UNK         0.0000 
  20766 C(3)       74.2528   92.5900   20.5223 C.ar      1 UNK         0.0000 
  20767 C(4)       73.1828   92.9527   21.3362 C.ar      1 UNK         0.0000 
  20768 C(5)       72.0872   93.6110   20.7791 C.ar      1 UNK         0.0000 
  20769 C(6)       72.0819   93.9239   19.4273 C.ar      1 UNK         0.0000 
  20770 C(7)       74.0550   94.0964   16.3575 C.2       1 UNK         0.0000 
  20771 C(8)       73.6141   94.5290   14.9848 C.3       1 UNK         0.0000 
  20772 H(1)       75.0863   92.6131   18.5448 H         1 UNK         0.0000 
  20773 H(2)       75.1036   92.0601   20.9325 H         1 UNK         0.0000 
  20774 H(3)       71.2440   93.8811   21.4028 H         1 UNK         0.0000 
  20775 H(4)       71.2313   94.4370   18.9958 H         1 UNK         0.0000 
  20776 H(5)       72.3741   92.7134   23.0699 H         1 UNK         0.0000 
  20777 H(6)       72.1382   94.1883   16.9335 H         1 UNK         0.0000 
  20778 H(7)       73.6924   93.7046   14.3248 H         1 UNK         0.0000 
  20779 H(8)       72.6173   94.8862   14.9645 H         1 UNK         0.0000 
  20780 H(9)       74.2946   95.2521   14.6168 H         1 UNK         0.0000 
  20781 O(1)       75.9710  103.9743   19.4793 O.3       1 UNK         0.0000 
  20782 O(2)       73.9732   97.8056   19.3635 O.2       1 UNK         0.0000 
  20783 N(1)       76.1543   98.4100   19.5512 N.am      1 UNK         0.0000 
  20784 C(1)       76.0549   99.8184   19.5000 C.ar      1 UNK         0.0000 
  20785 C(2)       74.9727  100.5066   18.9517 C.ar      1 UNK         0.0000 
  20786 C(3)       74.9657  101.8984   18.9482 C.ar      1 UNK         0.0000 
  20787 C(4)       76.0357  102.6130   19.4805 C.ar      1 UNK         0.0000 
  20788 C(5)       77.1313  101.9251   20.0007 C.ar      1 UNK         0.0000 
  20789 C(6)       77.1366  100.5376   20.0094 C.ar      1 UNK         0.0000 
  20790 C(7)       75.1636   97.5047   19.5044 C.2       1 UNK         0.0000 
  20791 C(8)       75.6044   96.0705   19.6254 C.3       1 UNK         0.0000 
  20792 H(1)       74.1322   99.9641   18.5370 H         1 UNK         0.0000 
  20793 H(2)       74.1149  102.4149   18.5211 H         1 UNK         0.0000 
  20794 H(3)       77.9745  102.4744   20.4010 H         1 UNK         0.0000 
  20795 H(4)       77.9873  100.0041   20.4154 H         1 UNK         0.0000 
  20796 H(5)       76.8444  104.3570   19.6273 H         1 UNK         0.0000 
  20797 H(6)       77.0803   98.0465   19.7204 H         1 UNK         0.0000 
  20798 H(7)       75.5262   95.6074   18.6762 H         1 UNK         0.0000 
  20799 H(8)       76.6012   95.9724   19.9694 H         1 UNK         0.0000 
  20800 H(9)       74.9239   95.5529   20.2502 H         1 UNK         0.0000 
  20801 O(1)       71.6371   97.5076   20.5721 O.3       1 UNK         0.0000 
  20802 O(2)       69.6393   96.2675   26.6161 O.2       1 UNK         0.0000 
  20803 N(1)       71.8204   96.2169   25.9852 N.am      1 UNK         0.0000 
  20804 C(1)       71.7210   96.5758   24.6223 C.ar      1 UNK         0.0000 
  20805 C(2)       70.6388   97.2617   24.0711 C.ar      1 UNK         0.0000 
  20806 C(3)       70.6318   97.5705   22.7140 C.ar      1 UNK         0.0000 
  20807 C(4)       71.7018   97.2078   21.9000 C.ar      1 UNK         0.0000 
  20808 C(5)       72.7974   96.5494   22.4571 C.ar      1 UNK         0.0000 
  20809 C(6)       72.8027   96.2365   23.8089 C.ar      1 UNK         0.0000 
  20810 C(7)       70.8297   96.0641   26.8787 C.2       1 UNK         0.0000 
  20811 C(8)       71.2705   95.6314   28.2514 C.3       1 UNK         0.0000 
  20812 H(1)       69.7983   97.5474   24.6914 H         1 UNK         0.0000 
  20813 H(2)       69.7810   98.1004   22.3037 H         1 UNK         0.0000 
  20814 H(3)       73.6406   96.2793   21.8334 H         1 UNK         0.0000 
  20815 H(4)       73.6534   95.7235   24.2404 H         1 UNK         0.0000 
  20816 H(5)       72.5106   97.4471   20.1663 H         1 UNK         0.0000 
  20817 H(6)       72.7464   95.9722   26.3027 H         1 UNK         0.0000 
  20818 H(7)       71.1923   96.4559   28.9114 H         1 UNK         0.0000 
  20819 H(8)       72.2673   95.2743   28.2717 H         1 UNK         0.0000 
  20820 H(9)       70.5900   94.9083   28.6194 H         1 UNK         0.0000 
  20821 O(1)       70.5044  100.8684   23.7569 O.3       1 UNK         0.0000 
  20822 O(2)       72.5022  107.0372   23.8727 O.2       1 UNK         0.0000 
  20823 N(1)       70.3211  106.4328   23.6850 N.am      1 UNK         0.0000 
  20824 C(1)       70.4205  105.0244   23.7362 C.ar      1 UNK         0.0000 
  20825 C(2)       71.5027  104.3362   24.2845 C.ar      1 UNK         0.0000 
  20826 C(3)       71.5097  102.9444   24.2881 C.ar      1 UNK         0.0000 
  20827 C(4)       70.4397  102.2298   23.7557 C.ar      1 UNK         0.0000 
  20828 C(5)       69.3441  102.9177   23.2355 C.ar      1 UNK         0.0000 
  20829 C(6)       69.3388  104.3052   23.2268 C.ar      1 UNK         0.0000 
  20830 C(7)       71.3118  107.3381   23.7318 C.2       1 UNK         0.0000 
  20831 C(8)       70.8710  108.7723   23.6108 C.3       1 UNK         0.0000 
  20832 H(1)       72.3432  104.8787   24.6992 H         1 UNK         0.0000 
  20833 H(2)       72.3605  102.4279   24.7151 H         1 UNK         0.0000 
  20834 H(3)       68.5009  102.3684   22.8352 H         1 UNK         0.0000 
  20835 H(4)       68.4882  104.8387   22.8209 H         1 UNK         0.0000 
  20836 H(5)       69.6310  100.4858   23.6089 H         1 UNK         0.0000 
  20837 H(6)       69.3951  106.7963   23.5158 H         1 UNK         0.0000 
  20838 H(7)       70.9492  109.2354   24.5600 H         1 UNK         0.0000 
  20839 H(8)       69.8742  108.8704   23.2668 H         1 UNK         0.0000 
  20840 H(9)       71.5515  109.2899   22.9860 H         1 UNK         0.0000 
  20841 O(1)       74.8383   95.8732    8.3393 O.3       1 UNK         0.0000 
  20842 O(2)       76.8361   97.1133    2.2953 O.2       1 UNK         0.0000 
  20843 N(1)       74.6550   97.1640    2.9262 N.am      1 UNK         0.0000 
  20844 C(1)       74.7544   96.8050    4.2891 C.ar      1 UNK         0.0000 
  20845 C(2)       75.8366   96.1192    4.8403 C.ar      1 UNK         0.0000 
  20846 C(3)       75.8436   95.8104    6.1975 C.ar      1 UNK         0.0000 
  20847 C(4)       74.7736   96.1731    7.0114 C.ar      1 UNK         0.0000 
  20848 C(5)       73.6780   96.8314    6.4543 C.ar      1 UNK         0.0000 
  20849 C(6)       73.6727   97.1443    5.1025 C.ar      1 UNK         0.0000 
  20850 C(7)       75.6457   97.3168    2.0327 C.2       1 UNK         0.0000 
  20851 C(8)       75.2049   97.7494    0.6600 C.3       1 UNK         0.0000 
  20852 H(1)       76.6771   95.8335    4.2200 H         1 UNK         0.0000 
  20853 H(2)       76.6944   95.2805    6.6077 H         1 UNK         0.0000 
  20854 H(3)       72.8348   97.1015    7.0780 H         1 UNK         0.0000 
  20855 H(4)       72.8220   97.6574    4.6710 H         1 UNK         0.0000 
  20856 H(5)       73.9648   95.9338    8.7451 H         1 UNK         0.0000 
  20857 H(6)       73.7290   97.4087    2.6087 H         1 UNK         0.0000 
  20858 H(7)       75.2831   96.9250    0.0000 H         1 UNK         0.0000 
  20859 H(8)       74.2081   98.1066    0.6397 H         1 UNK         0.0000 
  20860 H(9)       75.8854   98.4725    0.2920 H         1 UNK         0.0000 
  20861 O(1)       77.5618  107.1947    5.1545 O.3       1 UNK         0.0000 
  20862 O(2)       75.5640  101.0260    5.0387 O.2       1 UNK         0.0000 
  20863 N(1)       77.7451  101.6304    5.2264 N.am      1 UNK         0.0000 
  20864 C(1)       77.6457  103.0388    5.1752 C.ar      1 UNK         0.0000 
  20865 C(2)       76.5635  103.7270    4.6269 C.ar      1 UNK         0.0000 
  20866 C(3)       76.5565  105.1188    4.6234 C.ar      1 UNK         0.0000 
  20867 C(4)       77.6265  105.8334    5.1557 C.ar      1 UNK         0.0000 
  20868 C(5)       78.7221  105.1455    5.6759 C.ar      1 UNK         0.0000 
  20869 C(6)       78.7274  103.7580    5.6846 C.ar      1 UNK         0.0000 
  20870 C(7)       76.7543  100.7251    5.1796 C.2       1 UNK         0.0000 
  20871 C(8)       77.1952   99.2909    5.3006 C.3       1 UNK         0.0000 
  20872 H(1)       75.7230  103.1845    4.2122 H         1 UNK         0.0000 
  20873 H(2)       75.7057  105.6353    4.1963 H         1 UNK         0.0000 
  20874 H(3)       79.5653  105.6948    6.0762 H         1 UNK         0.0000 
  20875 H(4)       79.5780  103.2245    6.0906 H         1 UNK         0.0000 
  20876 H(5)       78.4352  107.5773    5.3025 H         1 UNK         0.0000 
  20877 H(6)       78.6711  101.2669    5.3956 H         1 UNK         0.0000 
  20878 H(7)       77.1169   98.8278    4.3514 H         1 UNK         0.0000 
  20879 H(8)       78.1920   99.1928    5.6446 H         1 UNK         0.0000 
  20880 H(9)       76.5147   98.7733    5.9254 H         1 UNK         0.0000 
  20881 O(1)       74.8187  115.4103    6.2473 O.3       1 UNK         0.0000 
  20882 O(2)       72.8209  114.1703   12.2913 O.2       1 UNK         0.0000 
  20883 N(1)       75.0020  114.1196   11.6604 N.am      1 UNK         0.0000 
  20884 C(1)       74.9026  114.4785   10.2975 C.ar      1 UNK         0.0000 
  20885 C(2)       73.8204  115.1644    9.7463 C.ar      1 UNK         0.0000 
  20886 C(3)       73.8134  115.4732    8.3892 C.ar      1 UNK         0.0000 
  20887 C(4)       74.8834  115.1105    7.5752 C.ar      1 UNK         0.0000 
  20888 C(5)       75.9790  114.4521    8.1323 C.ar      1 UNK         0.0000 
  20889 C(6)       75.9843  114.1393    9.4841 C.ar      1 UNK         0.0000 
  20890 C(7)       74.0112  113.9668   12.5539 C.2       1 UNK         0.0000 
  20891 C(8)       74.4521  113.5342   13.9266 C.3       1 UNK         0.0000 
  20892 H(1)       72.9799  115.4501   10.3666 H         1 UNK         0.0000 
  20893 H(2)       72.9626  116.0031    7.9789 H         1 UNK         0.0000 
  20894 H(3)       76.8222  114.1821    7.5086 H         1 UNK         0.0000 
  20895 H(4)       76.8349  113.6262    9.9156 H         1 UNK         0.0000 
  20896 H(5)       75.6921  115.3498    5.8415 H         1 UNK         0.0000 
  20897 H(6)       75.9280  113.8749   11.9779 H         1 UNK         0.0000 
  20898 H(7)       74.3738  114.3586   14.5866 H         1 UNK         0.0000 
  20899 H(8)       75.4489  113.1770   13.9469 H         1 UNK         0.0000 
  20900 H(9)       73.7716  112.8111   14.2946 H         1 UNK         0.0000 
  20901 O(1)       79.1722  104.0888    9.4321 O.3       1 UNK         0.0000 
  20902 O(2)       81.1700  110.2576    9.5479 O.2       1 UNK         0.0000 
  20903 N(1)       78.9888  109.6532    9.3602 N.am      1 UNK         0.0000 
  20904 C(1)       79.0883  108.2448    9.4114 C.ar      1 UNK         0.0000 
  20905 C(2)       80.1705  107.5566    9.9597 C.ar      1 UNK         0.0000 
  20906 C(3)       80.1775  106.1648    9.9633 C.ar      1 UNK         0.0000 
  20907 C(4)       79.1075  105.4502    9.4309 C.ar      1 UNK         0.0000 
  20908 C(5)       78.0119  106.1381    8.9107 C.ar      1 UNK         0.0000 
  20909 C(6)       78.0066  107.5256    8.9020 C.ar      1 UNK         0.0000 
  20910 C(7)       79.9796  110.5585    9.4070 C.2       1 UNK         0.0000 
  20911 C(8)       79.5388  111.9927    9.2860 C.3       1 UNK         0.0000 
  20912 H(1)       81.0110  108.0991   10.3744 H         1 UNK         0.0000 
  20913 H(2)       81.0283  105.6483   10.3903 H         1 UNK         0.0000 
  20914 H(3)       77.1687  105.5888    8.5104 H         1 UNK         0.0000 
  20915 H(4)       77.1559  108.0591    8.4961 H         1 UNK         0.0000 
  20916 H(5)       78.2987  103.7062    9.2841 H         1 UNK         0.0000 
  20917 H(6)       78.0629  110.0167    9.1910 H         1 UNK         0.0000 
  20918 H(7)       79.6170  112.4558   10.2352 H         1 UNK         0.0000 
  20919 H(8)       78.5420  112.0908    8.9420 H         1 UNK         0.0000 
  20920 H(9)       80.2193  112.5103    8.6612 H         1 UNK         0.0000 
  20921 O(1)       69.3521  116.2865   15.5017 O.3       1 UNK         0.0000 
  20922 O(2)       71.3499  117.5266    9.4577 O.2       1 UNK         0.0000 
  20923 N(1)       69.1687  117.5773   10.0886 N.am      1 UNK         0.0000 
  20924 C(1)       69.2682  117.2183   11.4515 C.ar      1 UNK         0.0000 
  20925 C(2)       70.3503  116.5325   12.0027 C.ar      1 UNK         0.0000 
  20926 C(3)       70.3574  116.2237   13.3599 C.ar      1 UNK         0.0000 
  20927 C(4)       69.2874  116.5864   14.1738 C.ar      1 UNK         0.0000 
  20928 C(5)       68.1917  117.2447   13.6167 C.ar      1 UNK         0.0000 
  20929 C(6)       68.1864  117.5576   12.2649 C.ar      1 UNK         0.0000 
  20930 C(7)       70.1595  117.7301    9.1951 C.2       1 UNK         0.0000 
  20931 C(8)       69.7187  118.1627    7.8224 C.3       1 UNK         0.0000 
  20932 H(1)       71.1909  116.2468   11.3824 H         1 UNK         0.0000 
  20933 H(2)       71.2082  115.6938   13.7701 H         1 UNK         0.0000 
  20934 H(3)       67.3486  117.5148   14.2404 H         1 UNK         0.0000 
  20935 H(4)       67.3358  118.0707   11.8334 H         1 UNK         0.0000 
  20936 H(5)       68.4786  116.3471   15.9075 H         1 UNK         0.0000 
  20937 H(6)       68.2428  117.8220    9.7711 H         1 UNK         0.0000 
  20938 H(7)       69.7969  117.3383    7.1624 H         1 UNK         0.0000 
  20939 H(8)       68.7219  118.5199    7.8021 H         1 UNK         0.0000 
  20940 H(9)       70.3991  118.8858    7.4544 H         1 UNK         0.0000 
  20941 O(1)       70.4848  112.9257   12.3169 O.3       1 UNK         0.0000 
  20942 O(2)       68.4870  106.7569   12.2011 O.2       1 UNK         0.0000 
  20943 N(1)       70.6681  107.3613   12.3888 N.am      1 UNK         0.0000 
  20944 C(1)       70.5687  108.7698   12.3376 C.ar      1 UNK         0.0000 
  20945 C(2)       69.4865  109.4580   11.7893 C.ar      1 UNK         0.0000 
  20946 C(3)       69.4795  110.8498   11.7858 C.ar      1 UNK         0.0000 
  20947 C(4)       70.5495  111.5644   12.3181 C.ar      1 UNK         0.0000 
  20948 C(5)       71.6451  110.8765   12.8383 C.ar      1 UNK         0.0000 
  20949 C(6)       71.6504  109.4889   12.8470 C.ar      1 UNK         0.0000 
  20950 C(7)       69.6773  106.4560   12.3420 C.2       1 UNK         0.0000 
  20951 C(8)       70.1182  105.0219   12.4630 C.3       1 UNK         0.0000 
  20952 H(1)       68.6460  108.9154   11.3746 H         1 UNK         0.0000 
  20953 H(2)       68.6287  111.3663   11.3587 H         1 UNK         0.0000 
  20954 H(3)       72.4883  111.4257   13.2386 H         1 UNK         0.0000 
  20955 H(4)       72.5010  108.9554   13.2530 H         1 UNK         0.0000 
  20956 H(5)       71.3582  113.3083   12.4649 H         1 UNK         0.0000 
  20957 H(6)       71.5941  106.9979   12.5580 H         1 UNK         0.0000 
  20958 H(7)       70.0399  104.5588   11.5138 H         1 UNK         0.0000 
  20959 H(8)       71.1150  104.9238   12.8070 H         1 UNK         0.0000 
  20960 H(9)       69.4377  104.5042   13.0878 H         1 UNK         0.0000 
  20961 O(1)       74.8187  121.1413   13.4097 O.3       1 UNK         0.0000 
  20962 O(2)       72.8209  119.9012   19.4537 O.2       1 UNK         0.0000 
  20963 N(1)       75.0020  119.8506   18.8228 N.am      1 UNK         0.0000 
  20964 C(1)       74.9026  120.2095   17.4599 C.ar      1 UNK         0.0000 
  20965 C(2)       73.8204  120.8954   16.9087 C.ar      1 UNK         0.0000 
  20966 C(3)       73.8134  121.2042   15.5516 C.ar      1 UNK         0.0000 
  20967 C(4)       74.8834  120.8415   14.7376 C.ar      1 UNK         0.0000 
  20968 C(5)       75.9790  120.1831   15.2947 C.ar      1 UNK         0.0000 
  20969 C(6)       75.9843  119.8702   16.6465 C.ar      1 UNK         0.0000 
  20970 C(7)       74.0112  119.6978   19.7163 C.2       1 UNK         0.0000 
  20971 C(8)       74.4521  119.2651   21.0890 C.3       1 UNK         0.0000 
  20972 H(1)       72.9799  121.1810   17.5290 H         1 UNK         0.0000 
  20973 H(2)       72.9626  121.7341   15.1413 H         1 UNK         0.0000 
  20974 H(3)       76.8222  119.9130   14.6710 H         1 UNK         0.0000 
  20975 H(4)       76.8349  119.3572   17.0780 H         1 UNK         0.0000 
  20976 H(5)       75.6921  121.0808   13.0039 H         1 UNK         0.0000 
  20977 H(6)       75.9280  119.6059   19.1403 H         1 UNK         0.0000 
  20978 H(7)       74.3738  120.0896   21.7490 H         1 UNK         0.0000 
  20979 H(8)       75.4489  118.9080   21.1093 H         1 UNK         0.0000 
  20980 H(9)       73.7716  118.5420   21.4570 H         1 UNK         0.0000 
  20981 O(1)       79.1722  109.8198   16.5945 O.3       1 UNK         0.0000 
  20982 O(2)       81.1700  115.9886   16.7103 O.2       1 UNK         0.0000 
  20983 N(1)       78.9888  115.3842   16.5226 N.am      1 UNK         0.0000 
  20984 C(1)       79.0883  113.9758   16.5738 C.ar      1 UNK         0.0000 
  20985 C(2)       80.1705  113.2875   17.1221 C.ar      1 UNK         0.0000 
  20986 C(3)       80.1775  111.8957   17.1257 C.ar      1 UNK         0.0000 
  20987 C(4)       79.1075  111.1811   16.5933 C.ar      1 UNK         0.0000 
  20988 C(5)       78.0119  111.8690   16.0731 C.ar      1 UNK         0.0000 
  20989 C(6)       78.0066  113.2566   16.0644 C.ar      1 UNK         0.0000 
  20990 C(7)       79.9796  116.2895   16.5694 C.2       1 UNK         0.0000 
  20991 C(8)       79.5388  117.7236   16.4484 C.3       1 UNK         0.0000 
  20992 H(1)       81.0110  113.8301   17.5368 H         1 UNK         0.0000 
  20993 H(2)       81.0283  111.3793   17.5527 H         1 UNK         0.0000 
  20994 H(3)       77.1687  111.3198   15.6728 H         1 UNK         0.0000 
  20995 H(4)       77.1559  113.7901   15.6585 H         1 UNK         0.0000 
  20996 H(5)       78.2987  109.4372   16.4465 H         1 UNK         0.0000 
  20997 H(6)       78.0629  115.7477   16.3534 H         1 UNK         0.0000 
  20998 H(7)       79.6170  118.1867   17.3976 H         1 UNK         0.0000 
  20999 H(8)       78.5420  117.8218   16.1044 H         1 UNK         0.0000 
  21000 H(9)       80.2193  118.2413   15.8236 H         1 UNK         0.0000 
  21001 O(1)       74.8383  107.3352   22.6641 O.3       1 UNK         0.0000 
  21002 O(2)       76.8361  108.5753   16.6201 O.2       1 UNK         0.0000 
  21003 N(1)       74.6550  108.6259   17.2510 N.am      1 UNK         0.0000 
  21004 C(1)       74.7544  108.2670   18.6139 C.ar      1 UNK         0.0000 
  21005 C(2)       75.8366  107.5811   19.1651 C.ar      1 UNK         0.0000 
  21006 C(3)       75.8436  107.2723   20.5223 C.ar      1 UNK         0.0000 
  21007 C(4)       74.7736  107.6350   21.3362 C.ar      1 UNK         0.0000 
  21008 C(5)       73.6780  108.2934   20.7791 C.ar      1 UNK         0.0000 
  21009 C(6)       73.6727  108.6062   19.4273 C.ar      1 UNK         0.0000 
  21010 C(7)       75.6457  108.7787   16.3575 C.2       1 UNK         0.0000 
  21011 C(8)       75.2049  109.2114   14.9848 C.3       1 UNK         0.0000 
  21012 H(1)       76.6771  107.2954   18.5448 H         1 UNK         0.0000 
  21013 H(2)       76.6944  106.7424   20.9325 H         1 UNK         0.0000 
  21014 H(3)       72.8348  108.5635   21.4028 H         1 UNK         0.0000 
  21015 H(4)       72.8220  109.1193   18.9958 H         1 UNK         0.0000 
  21016 H(5)       73.9648  107.3957   23.0699 H         1 UNK         0.0000 
  21017 H(6)       73.7290  108.8706   16.9335 H         1 UNK         0.0000 
  21018 H(7)       75.2831  108.3869   14.3248 H         1 UNK         0.0000 
  21019 H(8)       74.2081  109.5685   14.9645 H         1 UNK         0.0000 
  21020 H(9)       75.8854  109.9345   14.6168 H         1 UNK         0.0000 
  21021 O(1)       77.5618  118.6567   19.4793 O.3       1 UNK         0.0000 
  21022 O(2)       75.5640  112.4879   19.3635 O.2       1 UNK         0.0000 
  21023 N(1)       77.7451  113.0923   19.5512 N.am      1 UNK         0.0000 
  21024 C(1)       77.6457  114.5007   19.5000 C.ar      1 UNK         0.0000 
  21025 C(2)       76.5635  115.1890   18.9517 C.ar      1 UNK         0.0000 
  21026 C(3)       76.5565  116.5808   18.9482 C.ar      1 UNK         0.0000 
  21027 C(4)       77.6265  117.2954   19.4805 C.ar      1 UNK         0.0000 
  21028 C(5)       78.7221  116.6074   20.0007 C.ar      1 UNK         0.0000 
  21029 C(6)       78.7274  115.2199   20.0094 C.ar      1 UNK         0.0000 
  21030 C(7)       76.7543  112.1870   19.5044 C.2       1 UNK         0.0000 
  21031 C(8)       77.1952  110.7529   19.6254 C.3       1 UNK         0.0000 
  21032 H(1)       75.7230  114.6464   18.5370 H         1 UNK         0.0000 
  21033 H(2)       75.7057  117.0972   18.5211 H         1 UNK         0.0000 
  21034 H(3)       79.5653  117.1567   20.4010 H         1 UNK         0.0000 
  21035 H(4)       79.5780  114.6864   20.4154 H         1 UNK         0.0000 
  21036 H(5)       78.4352  119.0393   19.6273 H         1 UNK         0.0000 
  21037 H(6)       78.6711  112.7288   19.7204 H         1 UNK         0.0000 
  21038 H(7)       77.1169  110.2898   18.6762 H         1 UNK         0.0000 
  21039 H(8)       78.1920  110.6547   19.9694 H         1 UNK         0.0000 
  21040 H(9)       76.5147  110.2352   20.2502 H         1 UNK         0.0000 
  21041 O(1)       73.2279  112.1899   20.5721 O.3       1 UNK         0.0000 
  21042 O(2)       71.2301  110.9499   26.6161 O.2       1 UNK         0.0000 
  21043 N(1)       73.4112  110.8992   25.9852 N.am      1 UNK         0.0000 
  21044 C(1)       73.3118  111.2581   24.6223 C.ar      1 UNK         0.0000 
  21045 C(2)       72.2296  111.9440   24.0711 C.ar      1 UNK         0.0000 
  21046 C(3)       72.2226  112.2528   22.7140 C.ar      1 UNK         0.0000 
  21047 C(4)       73.2926  111.8901   21.9000 C.ar      1 UNK         0.0000 
  21048 C(5)       74.3882  111.2318   22.4571 C.ar      1 UNK         0.0000 
  21049 C(6)       74.3935  110.9189   23.8089 C.ar      1 UNK         0.0000 
  21050 C(7)       72.4205  110.7464   26.8787 C.2       1 UNK         0.0000 
  21051 C(8)       72.8613  110.3138   28.2514 C.3       1 UNK         0.0000 
  21052 H(1)       71.3891  112.2297   24.6914 H         1 UNK         0.0000 
  21053 H(2)       71.3718  112.7827   22.3037 H         1 UNK         0.0000 
  21054 H(3)       75.2314  110.9617   21.8334 H         1 UNK         0.0000 
  21055 H(4)       75.2441  110.4058   24.2404 H         1 UNK         0.0000 
  21056 H(5)       74.1013  112.1294   20.1663 H         1 UNK         0.0000 
  21057 H(6)       74.3372  110.6545   26.3027 H         1 UNK         0.0000 
  21058 H(7)       72.7830  111.1382   28.9114 H         1 UNK         0.0000 
  21059 H(8)       73.8581  109.9566   28.2717 H         1 UNK         0.0000 
  21060 H(9)       72.1808  109.5907   28.6194 H         1 UNK         0.0000 
  21061 O(1)       72.0952  115.5508   23.7569 O.3       1 UNK         0.0000 
  21062 O(2)       74.0930  121.7196   23.8727 O.2       1 UNK         0.0000 
  21063 N(1)       71.9118  121.1152   23.6850 N.am      1 UNK         0.0000 
  21064 C(1)       72.0113  119.7067   23.7362 C.ar      1 UNK         0.0000 
  21065 C(2)       73.0935  119.0185   24.2845 C.ar      1 UNK         0.0000 
  21066 C(3)       73.1005  117.6267   24.2881 C.ar      1 UNK         0.0000 
  21067 C(4)       72.0305  116.9121   23.7557 C.ar      1 UNK         0.0000 
  21068 C(5)       70.9349  117.6000   23.2355 C.ar      1 UNK         0.0000 
  21069 C(6)       70.9296  118.9876   23.2268 C.ar      1 UNK         0.0000 
  21070 C(7)       72.9026  122.0205   23.7318 C.2       1 UNK         0.0000 
  21071 C(8)       72.4618  123.4546   23.6108 C.3       1 UNK         0.0000 
  21072 H(1)       73.9340  119.5610   24.6992 H         1 UNK         0.0000 
  21073 H(2)       73.9513  117.1102   24.7151 H         1 UNK         0.0000 
  21074 H(3)       70.0917  117.0508   22.8352 H         1 UNK         0.0000 
  21075 H(4)       70.0789  119.5211   22.8209 H         1 UNK         0.0000 
  21076 H(5)       71.2217  115.1682   23.6089 H         1 UNK         0.0000 
  21077 H(6)       70.9859  121.4786   23.5158 H         1 UNK         0.0000 
  21078 H(7)       72.5400  123.9177   24.5600 H         1 UNK         0.0000 
  21079 H(8)       71.4650  123.5527   23.2668 H         1 UNK         0.0000 
  21080 H(9)       73.1422  123.9723   22.9860 H         1 UNK         0.0000 
  21081 O(1)       76.4291  110.5556    8.3393 O.3       1 UNK         0.0000 
  21082 O(2)       78.4269  111.7957    2.2953 O.2       1 UNK         0.0000 
  21083 N(1)       76.2457  111.8463    2.9262 N.am      1 UNK         0.0000 
  21084 C(1)       76.3452  111.4874    4.2891 C.ar      1 UNK         0.0000 
  21085 C(2)       77.4273  110.8015    4.8403 C.ar      1 UNK         0.0000 
  21086 C(3)       77.4344  110.4927    6.1975 C.ar      1 UNK         0.0000 
  21087 C(4)       76.3644  110.8554    7.0114 C.ar      1 UNK         0.0000 
  21088 C(5)       75.2687  111.5138    6.4543 C.ar      1 UNK         0.0000 
  21089 C(6)       75.2634  111.8266    5.1025 C.ar      1 UNK         0.0000 
  21090 C(7)       77.2365  111.9991    2.0327 C.2       1 UNK         0.0000 
  21091 C(8)       76.7957  112.4318    0.6600 C.3       1 UNK         0.0000 
  21092 H(1)       78.2679  110.5158    4.2200 H         1 UNK         0.0000 
  21093 H(2)       78.2852  109.9628    6.6077 H         1 UNK         0.0000 
  21094 H(3)       74.4256  111.7839    7.0780 H         1 UNK         0.0000 
  21095 H(4)       74.4128  112.3397    4.6710 H         1 UNK         0.0000 
  21096 H(5)       75.5556  110.6161    8.7451 H         1 UNK         0.0000 
  21097 H(6)       75.3198  112.0910    2.6087 H         1 UNK         0.0000 
  21098 H(7)       76.8739  111.6073    0.0000 H         1 UNK         0.0000 
  21099 H(8)       75.7989  112.7889    0.6397 H         1 UNK         0.0000 
  21100 H(9)       77.4761  113.1549    0.2920 H         1 UNK         0.0000 
  21101 O(1)       79.1526  121.8771    5.1545 O.3       1 UNK         0.0000 
  21102 O(2)       77.1548  115.7083    5.0387 O.2       1 UNK         0.0000 
  21103 N(1)       79.3359  116.3127    5.2264 N.am      1 UNK         0.0000 
  21104 C(1)       79.2365  117.7211    5.1752 C.ar      1 UNK         0.0000 
  21105 C(2)       78.1543  118.4094    4.6269 C.ar      1 UNK         0.0000 
  21106 C(3)       78.1473  119.8012    4.6234 C.ar      1 UNK         0.0000 
  21107 C(4)       79.2173  120.5158    5.1557 C.ar      1 UNK         0.0000 
  21108 C(5)       80.3129  119.8278    5.6759 C.ar      1 UNK         0.0000 
  21109 C(6)       80.3182  118.4403    5.6846 C.ar      1 UNK         0.0000 
  21110 C(7)       78.3451  115.4074    5.1796 C.2       1 UNK         0.0000 
  21111 C(8)       78.7860  113.9733    5.3006 C.3       1 UNK         0.0000 
  21112 H(1)       77.3138  117.8668    4.2122 H         1 UNK         0.0000 
  21113 H(2)       77.2965  120.3176    4.1963 H         1 UNK         0.0000 
  21114 H(3)       81.1561  120.3771    6.0762 H         1 UNK         0.0000 
  21115 H(4)       81.1688  117.9068    6.0906 H         1 UNK         0.0000 
  21116 H(5)       80.0260  122.2597    5.3025 H         1 UNK         0.0000 
  21117 H(6)       80.2619  115.9492    5.3956 H         1 UNK         0.0000 
  21118 H(7)       78.7077  113.5102    4.3514 H         1 UNK         0.0000 
  21119 H(8)       79.7828  113.8751    5.6446 H         1 UNK         0.0000 
  21120 H(9)       78.1055  113.4556    5.9254 H         1 UNK         0.0000 
  21121 O(1)       76.4095  130.0927    6.2473 O.3       1 UNK         0.0000 
  21122 O(2)       74.4117  128.8526   12.2913 O.2       1 UNK         0.0000 
  21123 N(1)       76.5928  128.8020   11.6604 N.am      1 UNK         0.0000 
  21124 C(1)       76.4933  129.1609   10.2975 C.ar      1 UNK         0.0000 
  21125 C(2)       75.4112  129.8468    9.7463 C.ar      1 UNK         0.0000 
  21126 C(3)       75.4042  130.1555    8.3892 C.ar      1 UNK         0.0000 
  21127 C(4)       76.4742  129.7929    7.5752 C.ar      1 UNK         0.0000 
  21128 C(5)       77.5698  129.1345    8.1323 C.ar      1 UNK         0.0000 
  21129 C(6)       77.5751  128.8216    9.4841 C.ar      1 UNK         0.0000 
  21130 C(7)       75.6020  128.6491   12.5539 C.2       1 UNK         0.0000 
  21131 C(8)       76.0429  128.2165   13.9266 C.3       1 UNK         0.0000 
  21132 H(1)       74.5707  130.1324   10.3666 H         1 UNK         0.0000 
  21133 H(2)       74.5533  130.6854    7.9789 H         1 UNK         0.0000 
  21134 H(3)       78.4130  128.8644    7.5086 H         1 UNK         0.0000 
  21135 H(4)       78.4257  128.3085    9.9156 H         1 UNK         0.0000 
  21136 H(5)       77.2829  130.0322    5.8415 H         1 UNK         0.0000 
  21137 H(6)       77.5188  128.5572   11.9779 H         1 UNK         0.0000 
  21138 H(7)       75.9646  129.0410   14.5866 H         1 UNK         0.0000 
  21139 H(8)       77.0397  127.8594   13.9469 H         1 UNK         0.0000 
  21140 H(9)       75.3624  127.4934   14.2946 H         1 UNK         0.0000 
  21141 O(1)       80.7630  118.7712    9.4321 O.3       1 UNK         0.0000 
  21142 O(2)       82.7608  124.9400    9.5479 O.2       1 UNK         0.0000 
  21143 N(1)       80.5796  124.3356    9.3602 N.am      1 UNK         0.0000 
  21144 C(1)       80.6791  122.9271    9.4114 C.ar      1 UNK         0.0000 
  21145 C(2)       81.7612  122.2389    9.9597 C.ar      1 UNK         0.0000 
  21146 C(3)       81.7683  120.8471    9.9633 C.ar      1 UNK         0.0000 
  21147 C(4)       80.6982  120.1325    9.4309 C.ar      1 UNK         0.0000 
  21148 C(5)       79.6026  120.8204    8.9107 C.ar      1 UNK         0.0000 
  21149 C(6)       79.5973  122.2080    8.9020 C.ar      1 UNK         0.0000 
  21150 C(7)       81.5704  125.2409    9.4070 C.2       1 UNK         0.0000 
  21151 C(8)       81.1296  126.6750    9.2860 C.3       1 UNK         0.0000 
  21152 H(1)       82.6018  122.7814   10.3744 H         1 UNK         0.0000 
  21153 H(2)       82.6191  120.3306   10.3903 H         1 UNK         0.0000 
  21154 H(3)       78.7595  120.2712    8.5104 H         1 UNK         0.0000 
  21155 H(4)       78.7467  122.7415    8.4961 H         1 UNK         0.0000 
  21156 H(5)       79.8895  118.3886    9.2841 H         1 UNK         0.0000 
  21157 H(6)       79.6537  124.6990    9.1910 H         1 UNK         0.0000 
  21158 H(7)       81.2078  127.1381   10.2352 H         1 UNK         0.0000 
  21159 H(8)       80.1328  126.7731    8.9420 H         1 UNK         0.0000 
  21160 H(9)       81.8100  127.1927    8.6612 H         1 UNK         0.0000 
  21161 O(1)       70.9429  130.9689   15.5017 O.3       1 UNK         0.0000 
  21162 O(2)       72.9407  132.2090    9.4577 O.2       1 UNK         0.0000 
  21163 N(1)       70.7595  132.2596   10.0886 N.am      1 UNK         0.0000 
  21164 C(1)       70.8590  131.9007   11.4515 C.ar      1 UNK         0.0000 
  21165 C(2)       71.9411  131.2148   12.0027 C.ar      1 UNK         0.0000 
  21166 C(3)       71.9482  130.9060   13.3599 C.ar      1 UNK         0.0000 
  21167 C(4)       70.8781  131.2687   14.1738 C.ar      1 UNK         0.0000 
  21168 C(5)       69.7825  131.9271   13.6167 C.ar      1 UNK         0.0000 
  21169 C(6)       69.7772  132.2399   12.2649 C.ar      1 UNK         0.0000 
  21170 C(7)       71.7503  132.4124    9.1951 C.2       1 UNK         0.0000 
  21171 C(8)       71.3094  132.8451    7.8224 C.3       1 UNK         0.0000 
  21172 H(1)       72.7817  130.9291   11.3824 H         1 UNK         0.0000 
  21173 H(2)       72.7990  130.3761   13.7701 H         1 UNK         0.0000 
  21174 H(3)       68.9394  132.1972   14.2404 H         1 UNK         0.0000 
  21175 H(4)       68.9266  132.7530   11.8334 H         1 UNK         0.0000 
  21176 H(5)       70.0694  131.0294   15.9075 H         1 UNK         0.0000 
  21177 H(6)       69.8336  132.5043    9.7711 H         1 UNK         0.0000 
  21178 H(7)       71.3877  132.0206    7.1624 H         1 UNK         0.0000 
  21179 H(8)       70.3127  133.2022    7.8021 H         1 UNK         0.0000 
  21180 H(9)       71.9899  133.5682    7.4544 H         1 UNK         0.0000 
  21181 O(1)       72.0756  127.6080   12.3169 O.3       1 UNK         0.0000 
  21182 O(2)       70.0778  121.4393   12.2011 O.2       1 UNK         0.0000 
  21183 N(1)       72.2589  122.0437   12.3888 N.am      1 UNK         0.0000 
  21184 C(1)       72.1595  123.4521   12.3376 C.ar      1 UNK         0.0000 
  21185 C(2)       71.0773  124.1403   11.7893 C.ar      1 UNK         0.0000 
  21186 C(3)       71.0703  125.5321   11.7858 C.ar      1 UNK         0.0000 
  21187 C(4)       72.1403  126.2467   12.3181 C.ar      1 UNK         0.0000 
  21188 C(5)       73.2359  125.5588   12.8383 C.ar      1 UNK         0.0000 
  21189 C(6)       73.2412  124.1713   12.8470 C.ar      1 UNK         0.0000 
  21190 C(7)       71.2681  121.1383   12.3420 C.2       1 UNK         0.0000 
  21191 C(8)       71.7090  119.7042   12.4630 C.3       1 UNK         0.0000 
  21192 H(1)       70.2368  123.5978   11.3746 H         1 UNK         0.0000 
  21193 H(2)       70.2195  126.0486   11.3587 H         1 UNK         0.0000 
  21194 H(3)       74.0791  126.1081   13.2386 H         1 UNK         0.0000 
  21195 H(4)       74.0918  123.6378   13.2530 H         1 UNK         0.0000 
  21196 H(5)       72.9490  127.9906   12.4649 H         1 UNK         0.0000 
  21197 H(6)       73.1849  121.6802   12.5580 H         1 UNK         0.0000 
  21198 H(7)       71.6307  119.2411   11.5138 H         1 UNK         0.0000 
  21199 H(8)       72.7058  119.6061   12.8070 H         1 UNK         0.0000 
  21200 H(9)       71.0285  119.1866   13.0878 H         1 UNK         0.0000 
  21201 O(1)       76.4095  135.8236   13.4097 O.3       1 UNK         0.0000 
  21202 O(2)       74.4117  134.5836   19.4537 O.2       1 UNK         0.0000 
  21203 N(1)       76.5928  134.5329   18.8228 N.am      1 UNK         0.0000 
  21204 C(1)       76.4933  134.8918   17.4599 C.ar      1 UNK         0.0000 
  21205 C(2)       75.4112  135.5777   16.9087 C.ar      1 UNK         0.0000 
  21206 C(3)       75.4042  135.8865   15.5516 C.ar      1 UNK         0.0000 
  21207 C(4)       76.4742  135.5238   14.7376 C.ar      1 UNK         0.0000 
  21208 C(5)       77.5698  134.8654   15.2947 C.ar      1 UNK         0.0000 
  21209 C(6)       77.5751  134.5526   16.6465 C.ar      1 UNK         0.0000 
  21210 C(7)       75.6020  134.3801   19.7163 C.2       1 UNK         0.0000 
  21211 C(8)       76.0429  133.9475   21.0890 C.3       1 UNK         0.0000 
  21212 H(1)       74.5707  135.8634   17.5290 H         1 UNK         0.0000 
  21213 H(2)       74.5533  136.4164   15.1413 H         1 UNK         0.0000 
  21214 H(3)       78.4130  134.5954   14.6710 H         1 UNK         0.0000 
  21215 H(4)       78.4257  134.0395   17.0780 H         1 UNK         0.0000 
  21216 H(5)       77.2829  135.7631   13.0039 H         1 UNK         0.0000 
  21217 H(6)       77.5188  134.2882   19.1403 H         1 UNK         0.0000 
  21218 H(7)       75.9646  134.7719   21.7490 H         1 UNK         0.0000 
  21219 H(8)       77.0397  133.5903   21.1093 H         1 UNK         0.0000 
  21220 H(9)       75.3624  133.2244   21.4570 H         1 UNK         0.0000 
  21221 O(1)       80.7630  124.5021   16.5945 O.3       1 UNK         0.0000 
  21222 O(2)       82.7608  130.6709   16.7103 O.2       1 UNK         0.0000 
  21223 N(1)       80.5796  130.0665   16.5226 N.am      1 UNK         0.0000 
  21224 C(1)       80.6791  128.6581   16.5738 C.ar      1 UNK         0.0000 
  21225 C(2)       81.7612  127.9699   17.1221 C.ar      1 UNK         0.0000 
  21226 C(3)       81.7683  126.5781   17.1257 C.ar      1 UNK         0.0000 
  21227 C(4)       80.6982  125.8635   16.5933 C.ar      1 UNK         0.0000 
  21228 C(5)       79.6026  126.5514   16.0731 C.ar      1 UNK         0.0000 
  21229 C(6)       79.5973  127.9389   16.0644 C.ar      1 UNK         0.0000 
  21230 C(7)       81.5704  130.9718   16.5694 C.2       1 UNK         0.0000 
  21231 C(8)       81.1296  132.4060   16.4484 C.3       1 UNK         0.0000 
  21232 H(1)       82.6018  128.5124   17.5368 H         1 UNK         0.0000 
  21233 H(2)       82.6191  126.0616   17.5527 H         1 UNK         0.0000 
  21234 H(3)       78.7595  126.0021   15.6728 H         1 UNK         0.0000 
  21235 H(4)       78.7467  128.4724   15.6585 H         1 UNK         0.0000 
  21236 H(5)       79.8895  124.1195   16.4465 H         1 UNK         0.0000 
  21237 H(6)       79.6537  130.4300   16.3534 H         1 UNK         0.0000 
  21238 H(7)       81.2078  132.8691   17.3976 H         1 UNK         0.0000 
  21239 H(8)       80.1328  132.5041   16.1044 H         1 UNK         0.0000 
  21240 H(9)       81.8100  132.9236   15.8236 H         1 UNK         0.0000 
  21241 O(1)       76.4291  122.0175   22.6641 O.3       1 UNK         0.0000 
  21242 O(2)       78.4269  123.2576   16.6201 O.2       1 UNK         0.0000 
  21243 N(1)       76.2457  123.3082   17.2510 N.am      1 UNK         0.0000 
  21244 C(1)       76.3452  122.9493   18.6139 C.ar      1 UNK         0.0000 
  21245 C(2)       77.4273  122.2634   19.1651 C.ar      1 UNK         0.0000 
  21246 C(3)       77.4344  121.9547   20.5223 C.ar      1 UNK         0.0000 
  21247 C(4)       76.3644  122.3173   21.3362 C.ar      1 UNK         0.0000 
  21248 C(5)       75.2687  122.9757   20.7791 C.ar      1 UNK         0.0000 
  21249 C(6)       75.2634  123.2886   19.4273 C.ar      1 UNK         0.0000 
  21250 C(7)       77.2365  123.4611   16.3575 C.2       1 UNK         0.0000 
  21251 C(8)       76.7957  123.8937   14.9848 C.3       1 UNK         0.0000 
  21252 H(1)       78.2679  121.9778   18.5448 H         1 UNK         0.0000 
  21253 H(2)       78.2852  121.4248   20.9325 H         1 UNK         0.0000 
  21254 H(3)       74.4256  123.2458   21.4028 H         1 UNK         0.0000 
  21255 H(4)       74.4128  123.8016   18.9958 H         1 UNK         0.0000 
  21256 H(5)       75.5556  122.0780   23.0699 H         1 UNK         0.0000 
  21257 H(6)       75.3198  123.5530   16.9335 H         1 UNK         0.0000 
  21258 H(7)       76.8739  123.0692   14.3248 H         1 UNK         0.0000 
  21259 H(8)       75.7989  124.2508   14.9645 H         1 UNK         0.0000 
  21260 H(9)       77.4761  124.6168   14.6168 H         1 UNK         0.0000 
  21261 O(1)       79.1526  133.3390   19.4793 O.3       1 UNK         0.0000 
  21262 O(2)       77.1548  127.1702   19.3635 O.2       1 UNK         0.0000 
  21263 N(1)       79.3359  127.7746   19.5512 N.am      1 UNK         0.0000 
  21264 C(1)       79.2365  129.1831   19.5000 C.ar      1 UNK         0.0000 
  21265 C(2)       78.1543  129.8713   18.9517 C.ar      1 UNK         0.0000 
  21266 C(3)       78.1473  131.2631   18.9482 C.ar      1 UNK         0.0000 
  21267 C(4)       79.2173  131.9777   19.4805 C.ar      1 UNK         0.0000 
  21268 C(5)       80.3129  131.2898   20.0007 C.ar      1 UNK         0.0000 
  21269 C(6)       80.3182  129.9022   20.0094 C.ar      1 UNK         0.0000 
  21270 C(7)       78.3451  126.8693   19.5044 C.2       1 UNK         0.0000 
  21271 C(8)       78.7860  125.4352   19.6254 C.3       1 UNK         0.0000 
  21272 H(1)       77.3138  129.3287   18.5370 H         1 UNK         0.0000 
  21273 H(2)       77.2965  131.7796   18.5211 H         1 UNK         0.0000 
  21274 H(3)       81.1561  131.8390   20.4010 H         1 UNK         0.0000 
  21275 H(4)       81.1688  129.3687   20.4154 H         1 UNK         0.0000 
  21276 H(5)       80.0260  133.7216   19.6273 H         1 UNK         0.0000 
  21277 H(6)       80.2619  127.4112   19.7204 H         1 UNK         0.0000 
  21278 H(7)       78.7077  124.9721   18.6762 H         1 UNK         0.0000 
  21279 H(8)       79.7828  125.3370   19.9694 H         1 UNK         0.0000 
  21280 H(9)       78.1055  124.9175   20.2502 H         1 UNK         0.0000 
  21281 O(1)       74.8187  126.8723   20.5721 O.3       1 UNK         0.0000 
  21282 O(2)       72.8209  125.6322   26.6161 O.2       1 UNK         0.0000 
  21283 N(1)       75.0020  125.5816   25.9852 N.am      1 UNK         0.0000 
  21284 C(1)       74.9026  125.9405   24.6223 C.ar      1 UNK         0.0000 
  21285 C(2)       73.8204  126.6264   24.0711 C.ar      1 UNK         0.0000 
  21286 C(3)       73.8134  126.9351   22.7140 C.ar      1 UNK         0.0000 
  21287 C(4)       74.8834  126.5725   21.9000 C.ar      1 UNK         0.0000 
  21288 C(5)       75.9790  125.9141   22.4571 C.ar      1 UNK         0.0000 
  21289 C(6)       75.9843  125.6012   23.8089 C.ar      1 UNK         0.0000 
  21290 C(7)       74.0112  125.4287   26.8787 C.2       1 UNK         0.0000 
  21291 C(8)       74.4521  124.9961   28.2514 C.3       1 UNK         0.0000 
  21292 H(1)       72.9799  126.9120   24.6914 H         1 UNK         0.0000 
  21293 H(2)       72.9626  127.4650   22.3037 H         1 UNK         0.0000 
  21294 H(3)       76.8222  125.6440   21.8334 H         1 UNK         0.0000 
  21295 H(4)       76.8349  125.0881   24.2404 H         1 UNK         0.0000 
  21296 H(5)       75.6921  126.8118   20.1663 H         1 UNK         0.0000 
  21297 H(6)       75.9280  125.3368   26.3027 H         1 UNK         0.0000 
  21298 H(7)       74.3738  125.8206   28.9114 H         1 UNK         0.0000 
  21299 H(8)       75.4489  124.6390   28.2717 H         1 UNK         0.0000 
  21300 H(9)       73.7716  124.2730   28.6194 H         1 UNK         0.0000 
  21301 O(1)       73.6860  130.2331   23.7569 O.3       1 UNK         0.0000 
  21302 O(2)       75.6838  136.4019   23.8727 O.2       1 UNK         0.0000 
  21303 N(1)       73.5026  135.7975   23.6850 N.am      1 UNK         0.0000 
  21304 C(1)       73.6021  134.3890   23.7362 C.ar      1 UNK         0.0000 
  21305 C(2)       74.6842  133.7008   24.2845 C.ar      1 UNK         0.0000 
  21306 C(3)       74.6913  132.3090   24.2881 C.ar      1 UNK         0.0000 
  21307 C(4)       73.6212  131.5944   23.7557 C.ar      1 UNK         0.0000 
  21308 C(5)       72.5256  132.2823   23.2355 C.ar      1 UNK         0.0000 
  21309 C(6)       72.5203  133.6699   23.2268 C.ar      1 UNK         0.0000 
  21310 C(7)       74.4934  136.7028   23.7318 C.2       1 UNK         0.0000 
  21311 C(8)       74.0526  138.1369   23.6108 C.3       1 UNK         0.0000 
  21312 H(1)       75.5248  134.2434   24.6992 H         1 UNK         0.0000 
  21313 H(2)       75.5421  131.7926   24.7151 H         1 UNK         0.0000 
  21314 H(3)       71.6825  131.7331   22.8352 H         1 UNK         0.0000 
  21315 H(4)       71.6697  134.2034   22.8209 H         1 UNK         0.0000 
  21316 H(5)       72.8125  129.8505   23.6089 H         1 UNK         0.0000 
  21317 H(6)       72.5767  136.1610   23.5158 H         1 UNK         0.0000 
  21318 H(7)       74.1308  138.6000   24.5600 H         1 UNK         0.0000 
  21319 H(8)       73.0558  138.2351   23.2668 H         1 UNK         0.0000 
  21320 H(9)       74.7330  138.6546   22.9860 H         1 UNK         0.0000 
  21321 O(1)       78.0199  125.2379    8.3393 O.3       1 UNK         0.0000 
  21322 O(2)       80.0177  126.4780    2.2953 O.2       1 UNK         0.0000 
  21323 N(1)       77.8365  126.5286    2.9262 N.am      1 UNK         0.0000 
  21324 C(1)       77.9360  126.1697    4.2891 C.ar      1 UNK         0.0000 
  21325 C(2)       79.0181  125.4838    4.8403 C.ar      1 UNK         0.0000 
  21326 C(3)       79.0252  125.1751    6.1975 C.ar      1 UNK         0.0000 
  21327 C(4)       77.9551  125.5377    7.0114 C.ar      1 UNK         0.0000 
  21328 C(5)       76.8595  126.1961    6.4543 C.ar      1 UNK         0.0000 
  21329 C(6)       76.8542  126.5090    5.1025 C.ar      1 UNK         0.0000 
  21330 C(7)       78.8273  126.6815    2.0327 C.2       1 UNK         0.0000 
  21331 C(8)       78.3864  127.1141    0.6600 C.3       1 UNK         0.0000 
  21332 H(1)       79.8587  125.1982    4.2200 H         1 UNK         0.0000 
  21333 H(2)       79.8760  124.6452    6.6077 H         1 UNK         0.0000 
  21334 H(3)       76.0164  126.4662    7.0780 H         1 UNK         0.0000 
  21335 H(4)       76.0036  127.0220    4.6710 H         1 UNK         0.0000 
  21336 H(5)       77.1464  125.2984    8.7451 H         1 UNK         0.0000 
  21337 H(6)       76.9106  126.7734    2.6087 H         1 UNK         0.0000 
  21338 H(7)       78.4647  126.2896    0.0000 H         1 UNK         0.0000 
  21339 H(8)       77.3897  127.4712    0.6397 H         1 UNK         0.0000 
  21340 H(9)       79.0669  127.8372    0.2920 H         1 UNK         0.0000 
  21341 O(1)       80.7434  136.5594    5.1545 O.3       1 UNK         0.0000 
  21342 O(2)       78.7455  130.3906    5.0387 O.2       1 UNK         0.0000 
  21343 N(1)       80.9267  130.9950    5.2264 N.am      1 UNK         0.0000 
  21344 C(1)       80.8272  132.4035    5.1752 C.ar      1 UNK         0.0000 
  21345 C(2)       79.7451  133.0917    4.6269 C.ar      1 UNK         0.0000 
  21346 C(3)       79.7380  134.4835    4.6234 C.ar      1 UNK         0.0000 
  21347 C(4)       80.8081  135.1981    5.1557 C.ar      1 UNK         0.0000 
  21348 C(5)       81.9037  134.5102    5.6759 C.ar      1 UNK         0.0000 
  21349 C(6)       81.9090  133.1226    5.6846 C.ar      1 UNK         0.0000 
  21350 C(7)       79.9359  130.0897    5.1796 C.2       1 UNK         0.0000 
  21351 C(8)       80.3768  128.6556    5.3006 C.3       1 UNK         0.0000 
  21352 H(1)       78.9045  132.5491    4.2122 H         1 UNK         0.0000 
  21353 H(2)       78.8872  135.0000    4.1963 H         1 UNK         0.0000 
  21354 H(3)       82.7468  135.0594    6.0762 H         1 UNK         0.0000 
  21355 H(4)       82.7596  132.5891    6.0906 H         1 UNK         0.0000 
  21356 H(5)       81.6168  136.9420    5.3025 H         1 UNK         0.0000 
  21357 H(6)       81.8527  130.6316    5.3956 H         1 UNK         0.0000 
  21358 H(7)       80.2985  128.1925    4.3514 H         1 UNK         0.0000 
  21359 H(8)       81.3735  128.5574    5.6446 H         1 UNK         0.0000 
  21360 H(9)       79.6963  128.1379    5.9254 H         1 UNK         0.0000 
  21361 O(1)       78.0003  144.7750    6.2473 O.3       1 UNK         0.0000 
  21362 O(2)       76.0024  143.5349   12.2913 O.2       1 UNK         0.0000 
  21363 N(1)       78.1836  143.4843   11.6604 N.am      1 UNK         0.0000 
  21364 C(1)       78.0841  143.8432   10.2975 C.ar      1 UNK         0.0000 
  21365 C(2)       77.0020  144.5291    9.7463 C.ar      1 UNK         0.0000 
  21366 C(3)       76.9949  144.8378    8.3892 C.ar      1 UNK         0.0000 
  21367 C(4)       78.0650  144.4752    7.5752 C.ar      1 UNK         0.0000 
  21368 C(5)       79.1606  143.8168    8.1323 C.ar      1 UNK         0.0000 
  21369 C(6)       79.1659  143.5039    9.4841 C.ar      1 UNK         0.0000 
  21370 C(7)       77.1928  143.3315   12.5539 C.2       1 UNK         0.0000 
  21371 C(8)       77.6337  142.8988   13.9266 C.3       1 UNK         0.0000 
  21372 H(1)       76.1614  144.8147   10.3666 H         1 UNK         0.0000 
  21373 H(2)       76.1441  145.3678    7.9789 H         1 UNK         0.0000 
  21374 H(3)       80.0037  143.5467    7.5086 H         1 UNK         0.0000 
  21375 H(4)       80.0165  142.9909    9.9156 H         1 UNK         0.0000 
  21376 H(5)       78.8737  144.7145    5.8415 H         1 UNK         0.0000 
  21377 H(6)       79.1095  143.2395   11.9779 H         1 UNK         0.0000 
  21378 H(7)       77.5554  143.7233   14.5866 H         1 UNK         0.0000 
  21379 H(8)       78.6304  142.5417   13.9469 H         1 UNK         0.0000 
  21380 H(9)       76.9532  142.1757   14.2946 H         1 UNK         0.0000 
  21381 O(1)       82.3537  133.4535    9.4321 O.3       1 UNK         0.0000 
  21382 O(2)       84.3516  139.6223    9.5479 O.2       1 UNK         0.0000 
  21383 N(1)       82.1704  139.0179    9.3602 N.am      1 UNK         0.0000 
  21384 C(1)       82.2699  137.6094    9.4114 C.ar      1 UNK         0.0000 
  21385 C(2)       83.3520  136.9212    9.9597 C.ar      1 UNK         0.0000 
  21386 C(3)       83.3591  135.5294    9.9633 C.ar      1 UNK         0.0000 
  21387 C(4)       82.2890  134.8148    9.4309 C.ar      1 UNK         0.0000 
  21388 C(5)       81.1934  135.5027    8.9107 C.ar      1 UNK         0.0000 
  21389 C(6)       81.1881  136.8903    8.9020 C.ar      1 UNK         0.0000 
  21390 C(7)       83.1612  139.9232    9.4070 C.2       1 UNK         0.0000 
  21391 C(8)       82.7203  141.3573    9.2860 C.3       1 UNK         0.0000 
  21392 H(1)       84.1926  137.4638   10.3744 H         1 UNK         0.0000 
  21393 H(2)       84.2099  135.0130   10.3903 H         1 UNK         0.0000 
  21394 H(3)       80.3503  134.9535    8.5104 H         1 UNK         0.0000 
  21395 H(4)       80.3375  137.4238    8.4961 H         1 UNK         0.0000 
  21396 H(5)       81.4803  133.0709    9.2841 H         1 UNK         0.0000 
  21397 H(6)       81.2445  139.3814    9.1910 H         1 UNK         0.0000 
  21398 H(7)       82.7986  141.8204   10.2352 H         1 UNK         0.0000 
  21399 H(8)       81.7236  141.4555    8.9420 H         1 UNK         0.0000 
  21400 H(9)       83.4008  141.8750    8.6612 H         1 UNK         0.0000 
  21401 O(1)       72.5336  145.6512   15.5017 O.3       1 UNK         0.0000 
  21402 O(2)       74.5315  146.8913    9.4577 O.2       1 UNK         0.0000 
  21403 N(1)       72.3503  146.9419   10.0886 N.am      1 UNK         0.0000 
  21404 C(1)       72.4498  146.5830   11.4515 C.ar      1 UNK         0.0000 
  21405 C(2)       73.5319  145.8971   12.0027 C.ar      1 UNK         0.0000 
  21406 C(3)       73.5390  145.5884   13.3599 C.ar      1 UNK         0.0000 
  21407 C(4)       72.4689  145.9510   14.1738 C.ar      1 UNK         0.0000 
  21408 C(5)       71.3733  146.6094   13.6167 C.ar      1 UNK         0.0000 
  21409 C(6)       71.3680  146.9223   12.2649 C.ar      1 UNK         0.0000 
  21410 C(7)       73.3411  147.0948    9.1951 C.2       1 UNK         0.0000 
  21411 C(8)       72.9002  147.5274    7.8224 C.3       1 UNK         0.0000 
  21412 H(1)       74.3725  145.6115   11.3824 H         1 UNK         0.0000 
  21413 H(2)       74.3898  145.0585   13.7701 H         1 UNK         0.0000 
  21414 H(3)       70.5301  146.8795   14.2404 H         1 UNK         0.0000 
  21415 H(4)       70.5174  147.4353   11.8334 H         1 UNK         0.0000 
  21416 H(5)       71.6602  145.7117   15.9075 H         1 UNK         0.0000 
  21417 H(6)       71.4243  147.1867    9.7711 H         1 UNK         0.0000 
  21418 H(7)       72.9785  146.7029    7.1624 H         1 UNK         0.0000 
  21419 H(8)       71.9034  147.8845    7.8021 H         1 UNK         0.0000 
  21420 H(9)       73.5807  148.2505    7.4544 H         1 UNK         0.0000 
  21421 O(1)       73.6664  142.2904   12.3169 O.3       1 UNK         0.0000 
  21422 O(2)       71.6685  136.1216   12.2011 O.2       1 UNK         0.0000 
  21423 N(1)       73.8497  136.7260   12.3888 N.am      1 UNK         0.0000 
  21424 C(1)       73.7502  138.1344   12.3376 C.ar      1 UNK         0.0000 
  21425 C(2)       72.6681  138.8226   11.7893 C.ar      1 UNK         0.0000 
  21426 C(3)       72.6610  140.2145   11.7858 C.ar      1 UNK         0.0000 
  21427 C(4)       73.7311  140.9291   12.3181 C.ar      1 UNK         0.0000 
  21428 C(5)       74.8267  140.2411   12.8383 C.ar      1 UNK         0.0000 
  21429 C(6)       74.8320  138.8536   12.8470 C.ar      1 UNK         0.0000 
  21430 C(7)       72.8589  135.8207   12.3420 C.2       1 UNK         0.0000 
  21431 C(8)       73.2998  134.3866   12.4630 C.3       1 UNK         0.0000 
  21432 H(1)       71.8275  138.2801   11.3746 H         1 UNK         0.0000 
  21433 H(2)       71.8102  140.7309   11.3587 H         1 UNK         0.0000 
  21434 H(3)       75.6698  140.7904   13.2386 H         1 UNK         0.0000 
  21435 H(4)       75.6826  138.3201   13.2530 H         1 UNK         0.0000 
  21436 H(5)       74.5398  142.6730   12.4649 H         1 UNK         0.0000 
  21437 H(6)       74.7757  136.3625   12.5580 H         1 UNK         0.0000 
  21438 H(7)       73.2215  133.9235   11.5138 H         1 UNK         0.0000 
  21439 H(8)       74.2965  134.2884   12.8070 H         1 UNK         0.0000 
  21440 H(9)       72.6193  133.8689   13.0878 H         1 UNK         0.0000 
  21441 O(1)       78.0003  150.5060   13.4097 O.3       1 UNK         0.0000 
  21442 O(2)       76.0024  149.2659   19.4537 O.2       1 UNK         0.0000 
  21443 N(1)       78.1836  149.2153   18.8228 N.am      1 UNK         0.0000 
  21444 C(1)       78.0841  149.5742   17.4599 C.ar      1 UNK         0.0000 
  21445 C(2)       77.0020  150.2601   16.9087 C.ar      1 UNK         0.0000 
  21446 C(3)       76.9949  150.5688   15.5516 C.ar      1 UNK         0.0000 
  21447 C(4)       78.0650  150.2062   14.7376 C.ar      1 UNK         0.0000 
  21448 C(5)       79.1606  149.5478   15.2947 C.ar      1 UNK         0.0000 
  21449 C(6)       79.1659  149.2349   16.6465 C.ar      1 UNK         0.0000 
  21450 C(7)       77.1928  149.0624   19.7163 C.2       1 UNK         0.0000 
  21451 C(8)       77.6337  148.6298   21.0890 C.3       1 UNK         0.0000 
  21452 H(1)       76.1614  150.5457   17.5290 H         1 UNK         0.0000 
  21453 H(2)       76.1441  151.0987   15.1413 H         1 UNK         0.0000 
  21454 H(3)       80.0037  149.2777   14.6710 H         1 UNK         0.0000 
  21455 H(4)       80.0165  148.7218   17.0780 H         1 UNK         0.0000 
  21456 H(5)       78.8737  150.4455   13.0039 H         1 UNK         0.0000 
  21457 H(6)       79.1095  148.9705   19.1403 H         1 UNK         0.0000 
  21458 H(7)       77.5554  149.4542   21.7490 H         1 UNK         0.0000 
  21459 H(8)       78.6304  148.2727   21.1093 H         1 UNK         0.0000 
  21460 H(9)       76.9532  147.9067   21.4570 H         1 UNK         0.0000 
  21461 O(1)       82.3537  139.1845   16.5945 O.3       1 UNK         0.0000 
  21462 O(2)       84.3516  145.3533   16.7103 O.2       1 UNK         0.0000 
  21463 N(1)       82.1704  144.7489   16.5226 N.am      1 UNK         0.0000 
  21464 C(1)       82.2699  143.3404   16.5738 C.ar      1 UNK         0.0000 
  21465 C(2)       83.3520  142.6522   17.1221 C.ar      1 UNK         0.0000 
  21466 C(3)       83.3591  141.2604   17.1257 C.ar      1 UNK         0.0000 
  21467 C(4)       82.2890  140.5458   16.5933 C.ar      1 UNK         0.0000 
  21468 C(5)       81.1934  141.2337   16.0731 C.ar      1 UNK         0.0000 
  21469 C(6)       81.1881  142.6212   16.0644 C.ar      1 UNK         0.0000 
  21470 C(7)       83.1612  145.6542   16.5694 C.2       1 UNK         0.0000 
  21471 C(8)       82.7203  147.0883   16.4484 C.3       1 UNK         0.0000 
  21472 H(1)       84.1926  143.1947   17.5368 H         1 UNK         0.0000 
  21473 H(2)       84.2099  140.7439   17.5527 H         1 UNK         0.0000 
  21474 H(3)       80.3503  140.6845   15.6728 H         1 UNK         0.0000 
  21475 H(4)       80.3375  143.1548   15.6585 H         1 UNK         0.0000 
  21476 H(5)       81.4803  138.8019   16.4465 H         1 UNK         0.0000 
  21477 H(6)       81.2445  145.1123   16.3534 H         1 UNK         0.0000 
  21478 H(7)       82.7986  147.5514   17.3976 H         1 UNK         0.0000 
  21479 H(8)       81.7236  147.1864   16.1044 H         1 UNK         0.0000 
  21480 H(9)       83.4008  147.6060   15.8236 H         1 UNK         0.0000 
  21481 O(1)       78.0199  136.6998   22.6641 O.3       1 UNK         0.0000 
  21482 O(2)       80.0177  137.9399   16.6201 O.2       1 UNK         0.0000 
  21483 N(1)       77.8365  137.9906   17.2510 N.am      1 UNK         0.0000 
  21484 C(1)       77.9360  137.6316   18.6139 C.ar      1 UNK         0.0000 
  21485 C(2)       79.0181  136.9458   19.1651 C.ar      1 UNK         0.0000 
  21486 C(3)       79.0252  136.6370   20.5223 C.ar      1 UNK         0.0000 
  21487 C(4)       77.9551  136.9997   21.3362 C.ar      1 UNK         0.0000 
  21488 C(5)       76.8595  137.6580   20.7791 C.ar      1 UNK         0.0000 
  21489 C(6)       76.8542  137.9709   19.4273 C.ar      1 UNK         0.0000 
  21490 C(7)       78.8273  138.1434   16.3575 C.2       1 UNK         0.0000 
  21491 C(8)       78.3864  138.5760   14.9848 C.3       1 UNK         0.0000 
  21492 H(1)       79.8587  136.6601   18.5448 H         1 UNK         0.0000 
  21493 H(2)       79.8760  136.1071   20.9325 H         1 UNK         0.0000 
  21494 H(3)       76.0164  137.9281   21.4028 H         1 UNK         0.0000 
  21495 H(4)       76.0036  138.4840   18.9958 H         1 UNK         0.0000 
  21496 H(5)       77.1464  136.7604   23.0699 H         1 UNK         0.0000 
  21497 H(6)       76.9106  138.2353   16.9335 H         1 UNK         0.0000 
  21498 H(7)       78.4647  137.7516   14.3248 H         1 UNK         0.0000 
  21499 H(8)       77.3897  138.9332   14.9645 H         1 UNK         0.0000 
  21500 H(9)       79.0669  139.2991   14.6168 H         1 UNK         0.0000 
  21501 O(1)       80.7434  148.0213   19.4793 O.3       1 UNK         0.0000 
  21502 O(2)       78.7455  141.8526   19.3635 O.2       1 UNK         0.0000 
  21503 N(1)       80.9267  142.4570   19.5512 N.am      1 UNK         0.0000 
  21504 C(1)       80.8272  143.8654   19.5000 C.ar      1 UNK         0.0000 
  21505 C(2)       79.7451  144.5536   18.9517 C.ar      1 UNK         0.0000 
  21506 C(3)       79.7380  145.9454   18.9482 C.ar      1 UNK         0.0000 
  21507 C(4)       80.8081  146.6600   19.4805 C.ar      1 UNK         0.0000 
  21508 C(5)       81.9037  145.9721   20.0007 C.ar      1 UNK         0.0000 
  21509 C(6)       81.9090  144.5846   20.0094 C.ar      1 UNK         0.0000 
  21510 C(7)       79.9359  141.5516   19.5044 C.2       1 UNK         0.0000 
  21511 C(8)       80.3768  140.1175   19.6254 C.3       1 UNK         0.0000 
  21512 H(1)       78.9045  144.0111   18.5370 H         1 UNK         0.0000 
  21513 H(2)       78.8872  146.4619   18.5211 H         1 UNK         0.0000 
  21514 H(3)       82.7468  146.5214   20.4010 H         1 UNK         0.0000 
  21515 H(4)       82.7596  144.0510   20.4154 H         1 UNK         0.0000 
  21516 H(5)       81.6168  148.4039   19.6273 H         1 UNK         0.0000 
  21517 H(6)       81.8527  142.0935   19.7204 H         1 UNK         0.0000 
  21518 H(7)       80.2985  139.6544   18.6762 H         1 UNK         0.0000 
  21519 H(8)       81.3735  140.0194   19.9694 H         1 UNK         0.0000 
  21520 H(9)       79.6963  139.5998   20.2502 H         1 UNK         0.0000 
  21521 O(1)       76.4095  141.5546   20.5721 O.3       1 UNK         0.0000 
  21522 O(2)       74.4117  140.3145   26.6161 O.2       1 UNK         0.0000 
  21523 N(1)       76.5928  140.2639   25.9852 N.am      1 UNK         0.0000 
  21524 C(1)       76.4933  140.6228   24.6223 C.ar      1 UNK         0.0000 
  21525 C(2)       75.4112  141.3087   24.0711 C.ar      1 UNK         0.0000 
  21526 C(3)       75.4042  141.6174   22.7140 C.ar      1 UNK         0.0000 
  21527 C(4)       76.4742  141.2548   21.9000 C.ar      1 UNK         0.0000 
  21528 C(5)       77.5698  140.5964   22.4571 C.ar      1 UNK         0.0000 
  21529 C(6)       77.5751  140.2835   23.8089 C.ar      1 UNK         0.0000 
  21530 C(7)       75.6020  140.1111   26.8787 C.2       1 UNK         0.0000 
  21531 C(8)       76.0429  139.6784   28.2514 C.3       1 UNK         0.0000 
  21532 H(1)       74.5707  141.5943   24.6914 H         1 UNK         0.0000 
  21533 H(2)       74.5533  142.1474   22.3037 H         1 UNK         0.0000 
  21534 H(3)       78.4130  140.3263   21.8334 H         1 UNK         0.0000 
  21535 H(4)       78.4257  139.7705   24.2404 H         1 UNK         0.0000 
  21536 H(5)       77.2829  141.4941   20.1663 H         1 UNK         0.0000 
  21537 H(6)       77.5188  140.0191   26.3027 H         1 UNK         0.0000 
  21538 H(7)       75.9646  140.5029   28.9114 H         1 UNK         0.0000 
  21539 H(8)       77.0397  139.3213   28.2717 H         1 UNK         0.0000 
  21540 H(9)       75.3624  138.9553   28.6194 H         1 UNK         0.0000 
  21541 O(1)       75.2767  144.9154   23.7569 O.3       1 UNK         0.0000 
  21542 O(2)       77.2746  151.0842   23.8727 O.2       1 UNK         0.0000 
  21543 N(1)       75.0934  150.4798   23.6850 N.am      1 UNK         0.0000 
  21544 C(1)       75.1929  149.0714   23.7362 C.ar      1 UNK         0.0000 
  21545 C(2)       76.2750  148.3832   24.2845 C.ar      1 UNK         0.0000 
  21546 C(3)       76.2821  146.9914   24.2881 C.ar      1 UNK         0.0000 
  21547 C(4)       75.2120  146.2767   23.7557 C.ar      1 UNK         0.0000 
  21548 C(5)       74.1164  146.9647   23.2355 C.ar      1 UNK         0.0000 
  21549 C(6)       74.1111  148.3522   23.2268 C.ar      1 UNK         0.0000 
  21550 C(7)       76.0842  151.3851   23.7318 C.2       1 UNK         0.0000 
  21551 C(8)       75.6433  152.8193   23.6108 C.3       1 UNK         0.0000 
  21552 H(1)       77.1156  148.9257   24.6992 H         1 UNK         0.0000 
  21553 H(2)       77.1329  146.4749   24.7151 H         1 UNK         0.0000 
  21554 H(3)       73.2733  146.4154   22.8352 H         1 UNK         0.0000 
  21555 H(4)       73.2605  148.8857   22.8209 H         1 UNK         0.0000 
  21556 H(5)       74.4033  144.5328   23.6089 H         1 UNK         0.0000 
  21557 H(6)       74.1675  150.8433   23.5158 H         1 UNK         0.0000 
  21558 H(7)       75.7216  153.2824   24.5600 H         1 UNK         0.0000 
  21559 H(8)       74.6466  152.9174   23.2668 H         1 UNK         0.0000 
  21560 H(9)       76.3238  153.3369   22.9860 H         1 UNK         0.0000 
  21561 O(1)       79.6106  139.9202    8.3393 O.3       1 UNK         0.0000 
  21562 O(2)       81.6085  141.1603    2.2953 O.2       1 UNK         0.0000 
  21563 N(1)       79.4273  141.2110    2.9262 N.am      1 UNK         0.0000 
  21564 C(1)       79.5268  140.8520    4.2891 C.ar      1 UNK         0.0000 
  21565 C(2)       80.6089  140.1662    4.8403 C.ar      1 UNK         0.0000 
  21566 C(3)       80.6160  139.8574    6.1975 C.ar      1 UNK         0.0000 
  21567 C(4)       79.5459  140.2201    7.0114 C.ar      1 UNK         0.0000 
  21568 C(5)       78.4503  140.8784    6.4543 C.ar      1 UNK         0.0000 
  21569 C(6)       78.4450  141.1913    5.1025 C.ar      1 UNK         0.0000 
  21570 C(7)       80.4181  141.3638    2.0327 C.2       1 UNK         0.0000 
  21571 C(8)       79.9772  141.7964    0.6600 C.3       1 UNK         0.0000 
  21572 H(1)       81.4495  139.8805    4.2200 H         1 UNK         0.0000 
  21573 H(2)       81.4668  139.3275    6.6077 H         1 UNK         0.0000 
  21574 H(3)       77.6071  141.1485    7.0780 H         1 UNK         0.0000 
  21575 H(4)       77.5944  141.7044    4.6710 H         1 UNK         0.0000 
  21576 H(5)       78.7372  139.9808    8.7451 H         1 UNK         0.0000 
  21577 H(6)       78.5013  141.4557    2.6087 H         1 UNK         0.0000 
  21578 H(7)       80.0555  140.9720    0.0000 H         1 UNK         0.0000 
  21579 H(8)       78.9804  142.1536    0.6397 H         1 UNK         0.0000 
  21580 H(9)       80.6577  142.5195    0.2920 H         1 UNK         0.0000 
  21581 O(1)       82.3341  151.2417    5.1545 O.3       1 UNK         0.0000 
  21582 O(2)       80.3363  145.0729    5.0387 O.2       1 UNK         0.0000 
  21583 N(1)       82.5175  145.6774    5.2264 N.am      1 UNK         0.0000 
  21584 C(1)       82.4180  147.0858    5.1752 C.ar      1 UNK         0.0000 
  21585 C(2)       81.3359  147.7740    4.6269 C.ar      1 UNK         0.0000 
  21586 C(3)       81.3288  149.1658    4.6234 C.ar      1 UNK         0.0000 
  21587 C(4)       82.3989  149.8804    5.1557 C.ar      1 UNK         0.0000 
  21588 C(5)       83.4945  149.1925    5.6759 C.ar      1 UNK         0.0000 
  21589 C(6)       83.4998  147.8050    5.6846 C.ar      1 UNK         0.0000 
  21590 C(7)       81.5267  144.7720    5.1796 C.2       1 UNK         0.0000 
  21591 C(8)       81.9676  143.3379    5.3006 C.3       1 UNK         0.0000 
  21592 H(1)       80.4953  147.2315    4.2122 H         1 UNK         0.0000 
  21593 H(2)       80.4780  149.6823    4.1963 H         1 UNK         0.0000 
  21594 H(3)       84.3376  149.7418    6.0762 H         1 UNK         0.0000 
  21595 H(4)       84.3504  147.2714    6.0906 H         1 UNK         0.0000 
  21596 H(5)       83.2076  151.6243    5.3025 H         1 UNK         0.0000 
  21597 H(6)       83.4434  145.3139    5.3956 H         1 UNK         0.0000 
  21598 H(7)       81.8893  142.8748    4.3514 H         1 UNK         0.0000 
  21599 H(8)       82.9643  143.2398    5.6446 H         1 UNK         0.0000 
  21600 H(9)       81.2871  142.8202    5.9254 H         1 UNK         0.0000 
  21601 O(1)       70.7602   12.6340    6.2473 O.3       1 UNK         0.0000 
  21602 O(2)       68.7624   11.3940   12.2913 O.2       1 UNK         0.0000 
  21603 N(1)       70.9435   11.3433   11.6604 N.am      1 UNK         0.0000 
  21604 C(1)       70.8441   11.7022   10.2975 C.ar      1 UNK         0.0000 
  21605 C(2)       69.7619   12.3881    9.7463 C.ar      1 UNK         0.0000 
  21606 C(3)       69.7549   12.6969    8.3892 C.ar      1 UNK         0.0000 
  21607 C(4)       70.8249   12.3342    7.5752 C.ar      1 UNK         0.0000 
  21608 C(5)       71.9205   11.6758    8.1323 C.ar      1 UNK         0.0000 
  21609 C(6)       71.9258   11.3630    9.4841 C.ar      1 UNK         0.0000 
  21610 C(7)       69.9528   11.1905   12.5539 C.2       1 UNK         0.0000 
  21611 C(8)       70.3936   10.7579   13.9266 C.3       1 UNK         0.0000 
  21612 H(1)       68.9214   12.6738   10.3666 H         1 UNK         0.0000 
  21613 H(2)       68.9041   13.2268    7.9789 H         1 UNK         0.0000 
  21614 H(3)       72.7637   11.4057    7.5086 H         1 UNK         0.0000 
  21615 H(4)       72.7764   10.8499    9.9156 H         1 UNK         0.0000 
  21616 H(5)       71.6336   12.5735    5.8415 H         1 UNK         0.0000 
  21617 H(6)       71.8695   11.0986   11.9779 H         1 UNK         0.0000 
  21618 H(7)       70.3153   11.5823   14.5866 H         1 UNK         0.0000 
  21619 H(8)       71.3904   10.4007   13.9469 H         1 UNK         0.0000 
  21620 H(9)       69.7131   10.0347   14.2946 H         1 UNK         0.0000 
  21621 O(1)       75.1137    1.3125    9.4321 O.3       1 UNK         0.0000 
  21622 O(2)       77.1115    7.4813    9.5479 O.2       1 UNK         0.0000 
  21623 N(1)       74.9304    6.8769    9.3602 N.am      1 UNK         0.0000 
  21624 C(1)       75.0298    5.4685    9.4114 C.ar      1 UNK         0.0000 
  21625 C(2)       76.1120    4.7803    9.9597 C.ar      1 UNK         0.0000 
  21626 C(3)       76.1190    3.3885    9.9633 C.ar      1 UNK         0.0000 
  21627 C(4)       75.0490    2.6738    9.4309 C.ar      1 UNK         0.0000 
  21628 C(5)       73.9534    3.3618    8.9107 C.ar      1 UNK         0.0000 
  21629 C(6)       73.9481    4.7493    8.9020 C.ar      1 UNK         0.0000 
  21630 C(7)       75.9211    7.7822    9.4070 C.2       1 UNK         0.0000 
  21631 C(8)       75.4803    9.2163    9.2860 C.3       1 UNK         0.0000 
  21632 H(1)       76.9525    5.3228   10.3744 H         1 UNK         0.0000 
  21633 H(2)       76.9698    2.8720   10.3903 H         1 UNK         0.0000 
  21634 H(3)       73.1102    2.8125    8.5104 H         1 UNK         0.0000 
  21635 H(4)       73.0974    5.2828    8.4961 H         1 UNK         0.0000 
  21636 H(5)       74.2403    0.9299    9.2841 H         1 UNK         0.0000 
  21637 H(6)       74.0044    7.2404    9.1910 H         1 UNK         0.0000 
  21638 H(7)       75.5585    9.6795   10.2352 H         1 UNK         0.0000 
  21639 H(8)       74.4835    9.3145    8.9420 H         1 UNK         0.0000 
  21640 H(9)       76.1608    9.7340    8.6612 H         1 UNK         0.0000 
  21641 O(1)       65.2936   13.5102   15.5017 O.3       1 UNK         0.0000 
  21642 O(2)       67.2914   14.7503    9.4577 O.2       1 UNK         0.0000 
  21643 N(1)       65.1103   14.8009   10.0886 N.am      1 UNK         0.0000 
  21644 C(1)       65.2097   14.4420   11.4515 C.ar      1 UNK         0.0000 
  21645 C(2)       66.2919   13.7561   12.0027 C.ar      1 UNK         0.0000 
  21646 C(3)       66.2989   13.4474   13.3599 C.ar      1 UNK         0.0000 
  21647 C(4)       65.2289   13.8100   14.1738 C.ar      1 UNK         0.0000 
  21648 C(5)       64.1333   14.4684   13.6167 C.ar      1 UNK         0.0000 
  21649 C(6)       64.1280   14.7813   12.2649 C.ar      1 UNK         0.0000 
  21650 C(7)       66.1010   14.9538    9.1951 C.2       1 UNK         0.0000 
  21651 C(8)       65.6602   15.3864    7.8224 C.3       1 UNK         0.0000 
  21652 H(1)       67.1324   13.4705   11.3824 H         1 UNK         0.0000 
  21653 H(2)       67.1497   12.9175   13.7701 H         1 UNK         0.0000 
  21654 H(3)       63.2901   14.7385   14.2404 H         1 UNK         0.0000 
  21655 H(4)       63.2773   15.2944   11.8334 H         1 UNK         0.0000 
  21656 H(5)       64.4201   13.5707   15.9075 H         1 UNK         0.0000 
  21657 H(6)       64.1843   15.0457    9.7711 H         1 UNK         0.0000 
  21658 H(7)       65.7384   14.5620    7.1624 H         1 UNK         0.0000 
  21659 H(8)       64.6634   15.7436    7.8021 H         1 UNK         0.0000 
  21660 H(9)       66.3407   16.1095    7.4544 H         1 UNK         0.0000 
  21661 O(1)       66.4263   10.1494   12.3169 O.3       1 UNK         0.0000 
  21662 O(2)       64.4285    3.9806   12.2011 O.2       1 UNK         0.0000 
  21663 N(1)       66.6096    4.5850   12.3888 N.am      1 UNK         0.0000 
  21664 C(1)       66.5102    5.9935   12.3376 C.ar      1 UNK         0.0000 
  21665 C(2)       65.4280    6.6817   11.7893 C.ar      1 UNK         0.0000 
  21666 C(3)       65.4210    8.0735   11.7858 C.ar      1 UNK         0.0000 
  21667 C(4)       66.4910    8.7881   12.3181 C.ar      1 UNK         0.0000 
  21668 C(5)       67.5866    8.1002   12.8383 C.ar      1 UNK         0.0000 
  21669 C(6)       67.5919    6.7126   12.8470 C.ar      1 UNK         0.0000 
  21670 C(7)       65.6189    3.6797   12.3420 C.2       1 UNK         0.0000 
  21671 C(8)       66.0597    2.2456   12.4630 C.3       1 UNK         0.0000 
  21672 H(1)       64.5875    6.1391   11.3746 H         1 UNK         0.0000 
  21673 H(2)       64.5702    8.5900   11.3587 H         1 UNK         0.0000 
  21674 H(3)       68.4298    8.6494   13.2386 H         1 UNK         0.0000 
  21675 H(4)       68.4426    6.1791   13.2530 H         1 UNK         0.0000 
  21676 H(5)       67.2997   10.5320   12.4649 H         1 UNK         0.0000 
  21677 H(6)       67.5356    4.2215   12.5580 H         1 UNK         0.0000 
  21678 H(7)       65.9815    1.7825   11.5138 H         1 UNK         0.0000 
  21679 H(8)       67.0565    2.1474   12.8070 H         1 UNK         0.0000 
  21680 H(9)       65.3792    1.7279   13.0878 H         1 UNK         0.0000 
  21681 O(1)       70.7602   18.3650   13.4097 O.3       1 UNK         0.0000 
  21682 O(2)       68.7624   17.1249   19.4537 O.2       1 UNK         0.0000 
  21683 N(1)       70.9435   17.0743   18.8228 N.am      1 UNK         0.0000 
  21684 C(1)       70.8441   17.4332   17.4599 C.ar      1 UNK         0.0000 
  21685 C(2)       69.7619   18.1191   16.9087 C.ar      1 UNK         0.0000 
  21686 C(3)       69.7549   18.4278   15.5516 C.ar      1 UNK         0.0000 
  21687 C(4)       70.8249   18.0652   14.7376 C.ar      1 UNK         0.0000 
  21688 C(5)       71.9205   17.4068   15.2947 C.ar      1 UNK         0.0000 
  21689 C(6)       71.9258   17.0939   16.6465 C.ar      1 UNK         0.0000 
  21690 C(7)       69.9528   16.9215   19.7163 C.2       1 UNK         0.0000 
  21691 C(8)       70.3936   16.4888   21.0890 C.3       1 UNK         0.0000 
  21692 H(1)       68.9214   18.4047   17.5290 H         1 UNK         0.0000 
  21693 H(2)       68.9041   18.9577   15.1413 H         1 UNK         0.0000 
  21694 H(3)       72.7637   17.1367   14.6710 H         1 UNK         0.0000 
  21695 H(4)       72.7764   16.5809   17.0780 H         1 UNK         0.0000 
  21696 H(5)       71.6336   18.3045   13.0039 H         1 UNK         0.0000 
  21697 H(6)       71.8695   16.8295   19.1403 H         1 UNK         0.0000 
  21698 H(7)       70.3153   17.3133   21.7490 H         1 UNK         0.0000 
  21699 H(8)       71.3904   16.1317   21.1093 H         1 UNK         0.0000 
  21700 H(9)       69.7131   15.7657   21.4570 H         1 UNK         0.0000 
  21701 O(1)       75.1137    7.0435   16.5945 O.3       1 UNK         0.0000 
  21702 O(2)       77.1115   13.2123   16.7103 O.2       1 UNK         0.0000 
  21703 N(1)       74.9304   12.6079   16.5226 N.am      1 UNK         0.0000 
  21704 C(1)       75.0298   11.1994   16.5738 C.ar      1 UNK         0.0000 
  21705 C(2)       76.1120   10.5112   17.1221 C.ar      1 UNK         0.0000 
  21706 C(3)       76.1190    9.1194   17.1257 C.ar      1 UNK         0.0000 
  21707 C(4)       75.0490    8.4048   16.5933 C.ar      1 UNK         0.0000 
  21708 C(5)       73.9534    9.0927   16.0731 C.ar      1 UNK         0.0000 
  21709 C(6)       73.9481   10.4803   16.0644 C.ar      1 UNK         0.0000 
  21710 C(7)       75.9211   13.5132   16.5694 C.2       1 UNK         0.0000 
  21711 C(8)       75.4803   14.9473   16.4484 C.3       1 UNK         0.0000 
  21712 H(1)       76.9525   11.0538   17.5368 H         1 UNK         0.0000 
  21713 H(2)       76.9698    8.6029   17.5527 H         1 UNK         0.0000 
  21714 H(3)       73.1102    8.5435   15.6728 H         1 UNK         0.0000 
  21715 H(4)       73.0974   11.0138   15.6585 H         1 UNK         0.0000 
  21716 H(5)       74.2403    6.6609   16.4465 H         1 UNK         0.0000 
  21717 H(6)       74.0044   12.9713   16.3534 H         1 UNK         0.0000 
  21718 H(7)       75.5585   15.4104   17.3976 H         1 UNK         0.0000 
  21719 H(8)       74.4835   15.0455   16.1044 H         1 UNK         0.0000 
  21720 H(9)       76.1608   15.4650   15.8236 H         1 UNK         0.0000 
  21721 O(1)       70.7798    4.5589   22.6641 O.3       1 UNK         0.0000 
  21722 O(2)       72.7776    5.7989   16.6201 O.2       1 UNK         0.0000 
  21723 N(1)       70.5965    5.8496   17.2510 N.am      1 UNK         0.0000 
  21724 C(1)       70.6959    5.4907   18.6139 C.ar      1 UNK         0.0000 
  21725 C(2)       71.7781    4.8048   19.1651 C.ar      1 UNK         0.0000 
  21726 C(3)       71.7851    4.4960   20.5223 C.ar      1 UNK         0.0000 
  21727 C(4)       70.7151    4.8587   21.3362 C.ar      1 UNK         0.0000 
  21728 C(5)       69.6195    5.5171   20.7791 C.ar      1 UNK         0.0000 
  21729 C(6)       69.6142    5.8299   19.4273 C.ar      1 UNK         0.0000 
  21730 C(7)       71.5872    6.0024   16.3575 C.2       1 UNK         0.0000 
  21731 C(8)       71.1464    6.4350   14.9848 C.3       1 UNK         0.0000 
  21732 H(1)       72.6186    4.5191   18.5448 H         1 UNK         0.0000 
  21733 H(2)       72.6359    3.9661   20.9325 H         1 UNK         0.0000 
  21734 H(3)       68.7763    5.7872   21.4028 H         1 UNK         0.0000 
  21735 H(4)       68.7636    6.3430   18.9958 H         1 UNK         0.0000 
  21736 H(5)       69.9064    4.6194   23.0699 H         1 UNK         0.0000 
  21737 H(6)       69.6705    6.0943   16.9335 H         1 UNK         0.0000 
  21738 H(7)       71.2247    5.6106   14.3248 H         1 UNK         0.0000 
  21739 H(8)       70.1496    6.7922   14.9645 H         1 UNK         0.0000 
  21740 H(9)       71.8269    7.1582   14.6168 H         1 UNK         0.0000 
  21741 O(1)       73.5033   15.8804   19.4793 O.3       1 UNK         0.0000 
  21742 O(2)       71.5055    9.7116   19.3635 O.2       1 UNK         0.0000 
  21743 N(1)       73.6866   10.3160   19.5512 N.am      1 UNK         0.0000 
  21744 C(1)       73.5872   11.7244   19.5000 C.ar      1 UNK         0.0000 
  21745 C(2)       72.5050   12.4126   18.9517 C.ar      1 UNK         0.0000 
  21746 C(3)       72.4980   13.8044   18.9482 C.ar      1 UNK         0.0000 
  21747 C(4)       73.5680   14.5191   19.4805 C.ar      1 UNK         0.0000 
  21748 C(5)       74.6636   13.8311   20.0007 C.ar      1 UNK         0.0000 
  21749 C(6)       74.6689   12.4436   20.0094 C.ar      1 UNK         0.0000 
  21750 C(7)       72.6959    9.4107   19.5044 C.2       1 UNK         0.0000 
  21751 C(8)       73.1367    7.9766   19.6254 C.3       1 UNK         0.0000 
  21752 H(1)       71.6645   11.8701   18.5370 H         1 UNK         0.0000 
  21753 H(2)       71.6472   14.3209   18.5211 H         1 UNK         0.0000 
  21754 H(3)       75.5068   14.3804   20.4010 H         1 UNK         0.0000 
  21755 H(4)       75.5196   11.9101   20.4154 H         1 UNK         0.0000 
  21756 H(5)       74.3767   16.2630   19.6273 H         1 UNK         0.0000 
  21757 H(6)       74.6126    9.9525   19.7204 H         1 UNK         0.0000 
  21758 H(7)       73.0585    7.5134   18.6762 H         1 UNK         0.0000 
  21759 H(8)       74.1335    7.8784   19.9694 H         1 UNK         0.0000 
  21760 H(9)       72.4562    7.4589   20.2502 H         1 UNK         0.0000 
  21761 O(1)       69.1694    9.4136   20.5721 O.3       1 UNK         0.0000 
  21762 O(2)       67.1716    8.1736   26.6161 O.2       1 UNK         0.0000 
  21763 N(1)       69.3527    8.1229   25.9852 N.am      1 UNK         0.0000 
  21764 C(1)       69.2533    8.4818   24.6223 C.ar      1 UNK         0.0000 
  21765 C(2)       68.1711    9.1677   24.0711 C.ar      1 UNK         0.0000 
  21766 C(3)       68.1641    9.4765   22.7140 C.ar      1 UNK         0.0000 
  21767 C(4)       69.2341    9.1138   21.9000 C.ar      1 UNK         0.0000 
  21768 C(5)       70.3297    8.4554   22.4571 C.ar      1 UNK         0.0000 
  21769 C(6)       70.3350    8.1426   23.8089 C.ar      1 UNK         0.0000 
  21770 C(7)       68.3620    7.9701   26.8787 C.2       1 UNK         0.0000 
  21771 C(8)       68.8028    7.5375   28.2514 C.3       1 UNK         0.0000 
  21772 H(1)       67.3306    9.4534   24.6914 H         1 UNK         0.0000 
  21773 H(2)       67.3133   10.0064   22.3037 H         1 UNK         0.0000 
  21774 H(3)       71.1729    8.1853   21.8334 H         1 UNK         0.0000 
  21775 H(4)       71.1857    7.6295   24.2404 H         1 UNK         0.0000 
  21776 H(5)       70.0429    9.3531   20.1663 H         1 UNK         0.0000 
  21777 H(6)       70.2787    7.8782   26.3027 H         1 UNK         0.0000 
  21778 H(7)       68.7246    8.3619   28.9114 H         1 UNK         0.0000 
  21779 H(8)       69.7996    7.1803   28.2717 H         1 UNK         0.0000 
  21780 H(9)       68.1223    6.8143   28.6194 H         1 UNK         0.0000 
  21781 O(1)       68.0367   12.7745   23.7569 O.3       1 UNK         0.0000 
  21782 O(2)       70.0345   18.9433   23.8727 O.2       1 UNK         0.0000 
  21783 N(1)       67.8534   18.3389   23.6850 N.am      1 UNK         0.0000 
  21784 C(1)       67.9528   16.9304   23.7362 C.ar      1 UNK         0.0000 
  21785 C(2)       69.0350   16.2422   24.2845 C.ar      1 UNK         0.0000 
  21786 C(3)       69.0420   14.8504   24.2881 C.ar      1 UNK         0.0000 
  21787 C(4)       67.9720   14.1358   23.7557 C.ar      1 UNK         0.0000 
  21788 C(5)       66.8764   14.8237   23.2355 C.ar      1 UNK         0.0000 
  21789 C(6)       66.8711   16.2112   23.2268 C.ar      1 UNK         0.0000 
  21790 C(7)       68.8441   19.2442   23.7318 C.2       1 UNK         0.0000 
  21791 C(8)       68.4033   20.6783   23.6108 C.3       1 UNK         0.0000 
  21792 H(1)       69.8755   16.7847   24.6992 H         1 UNK         0.0000 
  21793 H(2)       69.8928   14.3339   24.7151 H         1 UNK         0.0000 
  21794 H(3)       66.0332   14.2744   22.8352 H         1 UNK         0.0000 
  21795 H(4)       66.0204   16.7448   22.8209 H         1 UNK         0.0000 
  21796 H(5)       67.1633   12.3919   23.6089 H         1 UNK         0.0000 
  21797 H(6)       66.9274   18.7023   23.5158 H         1 UNK         0.0000 
  21798 H(7)       68.4815   21.1414   24.5600 H         1 UNK         0.0000 
  21799 H(8)       67.4065   20.7764   23.2668 H         1 UNK         0.0000 
  21800 H(9)       69.0838   21.1960   22.9860 H         1 UNK         0.0000 
  21801 O(1)       72.3706    7.7793    8.3393 O.3       1 UNK         0.0000 
  21802 O(2)       74.3684    9.0193    2.2953 O.2       1 UNK         0.0000 
  21803 N(1)       72.1873    9.0700    2.9262 N.am      1 UNK         0.0000 
  21804 C(1)       72.2867    8.7111    4.2891 C.ar      1 UNK         0.0000 
  21805 C(2)       73.3689    8.0252    4.8403 C.ar      1 UNK         0.0000 
  21806 C(3)       73.3759    7.7164    6.1975 C.ar      1 UNK         0.0000 
  21807 C(4)       72.3059    8.0791    7.0114 C.ar      1 UNK         0.0000 
  21808 C(5)       71.2103    8.7375    6.4543 C.ar      1 UNK         0.0000 
  21809 C(6)       71.2050    9.0503    5.1025 C.ar      1 UNK         0.0000 
  21810 C(7)       73.1780    9.2228    2.0327 C.2       1 UNK         0.0000 
  21811 C(8)       72.7372    9.6554    0.6600 C.3       1 UNK         0.0000 
  21812 H(1)       74.2094    7.7395    4.2200 H         1 UNK         0.0000 
  21813 H(2)       74.2267    7.1865    6.6077 H         1 UNK         0.0000 
  21814 H(3)       70.3671    9.0076    7.0780 H         1 UNK         0.0000 
  21815 H(4)       70.3543    9.5634    4.6710 H         1 UNK         0.0000 
  21816 H(5)       71.4971    7.8398    8.7451 H         1 UNK         0.0000 
  21817 H(6)       71.2613    9.3147    2.6087 H         1 UNK         0.0000 
  21818 H(7)       72.8154    8.8310    0.0000 H         1 UNK         0.0000 
  21819 H(8)       71.7404   10.0126    0.6397 H         1 UNK         0.0000 
  21820 H(9)       73.4177   10.3786    0.2920 H         1 UNK         0.0000 
  21821 O(1)       75.0941   19.1008    5.1545 O.3       1 UNK         0.0000 
  21822 O(2)       73.0963   12.9320    5.0387 O.2       1 UNK         0.0000 
  21823 N(1)       75.2774   13.5364    5.2264 N.am      1 UNK         0.0000 
  21824 C(1)       75.1780   14.9448    5.1752 C.ar      1 UNK         0.0000 
  21825 C(2)       74.0958   15.6330    4.6269 C.ar      1 UNK         0.0000 
  21826 C(3)       74.0888   17.0248    4.6234 C.ar      1 UNK         0.0000 
  21827 C(4)       75.1588   17.7395    5.1557 C.ar      1 UNK         0.0000 
  21828 C(5)       76.2544   17.0515    5.6759 C.ar      1 UNK         0.0000 
  21829 C(6)       76.2597   15.6640    5.6846 C.ar      1 UNK         0.0000 
  21830 C(7)       74.2866   12.6311    5.1796 C.2       1 UNK         0.0000 
  21831 C(8)       74.7275   11.1969    5.3006 C.3       1 UNK         0.0000 
  21832 H(1)       73.2553   15.0905    4.2122 H         1 UNK         0.0000 
  21833 H(2)       73.2380   17.5413    4.1963 H         1 UNK         0.0000 
  21834 H(3)       77.0976   17.6008    6.0762 H         1 UNK         0.0000 
  21835 H(4)       77.1103   15.1305    6.0906 H         1 UNK         0.0000 
  21836 H(5)       75.9675   19.4834    5.3025 H         1 UNK         0.0000 
  21837 H(6)       76.2034   13.1729    5.3956 H         1 UNK         0.0000 
  21838 H(7)       74.6492   10.7338    4.3514 H         1 UNK         0.0000 
  21839 H(8)       75.7243   11.0988    5.6446 H         1 UNK         0.0000 
  21840 H(9)       74.0470   10.6793    5.9254 H         1 UNK         0.0000 
  21841 O(1)       72.3510   27.3164    6.2473 O.3       1 UNK         0.0000 
  21842 O(2)       70.3532   26.0763   12.2913 O.2       1 UNK         0.0000 
  21843 N(1)       72.5343   26.0256   11.6604 N.am      1 UNK         0.0000 
  21844 C(1)       72.4349   26.3846   10.2975 C.ar      1 UNK         0.0000 
  21845 C(2)       71.3527   27.0704    9.7463 C.ar      1 UNK         0.0000 
  21846 C(3)       71.3457   27.3792    8.3892 C.ar      1 UNK         0.0000 
  21847 C(4)       72.4157   27.0165    7.5752 C.ar      1 UNK         0.0000 
  21848 C(5)       73.5113   26.3582    8.1323 C.ar      1 UNK         0.0000 
  21849 C(6)       73.5166   26.0453    9.4841 C.ar      1 UNK         0.0000 
  21850 C(7)       71.5435   25.8728   12.5539 C.2       1 UNK         0.0000 
  21851 C(8)       71.9844   25.4402   13.9266 C.3       1 UNK         0.0000 
  21852 H(1)       70.5122   27.3561   10.3666 H         1 UNK         0.0000 
  21853 H(2)       70.4949   27.9091    7.9789 H         1 UNK         0.0000 
  21854 H(3)       74.3545   26.0881    7.5086 H         1 UNK         0.0000 
  21855 H(4)       74.3672   25.5322    9.9156 H         1 UNK         0.0000 
  21856 H(5)       73.2244   27.2558    5.8415 H         1 UNK         0.0000 
  21857 H(6)       73.4603   25.7809   11.9779 H         1 UNK         0.0000 
  21858 H(7)       71.9061   26.2646   14.5866 H         1 UNK         0.0000 
  21859 H(8)       72.9812   25.0830   13.9469 H         1 UNK         0.0000 
  21860 H(9)       71.3039   24.7171   14.2946 H         1 UNK         0.0000 
  21861 O(1)       76.7045   15.9949    9.4321 O.3       1 UNK         0.0000 
  21862 O(2)       78.7023   22.1637    9.5479 O.2       1 UNK         0.0000 
  21863 N(1)       76.5211   21.5592    9.3602 N.am      1 UNK         0.0000 
  21864 C(1)       76.6206   20.1508    9.4114 C.ar      1 UNK         0.0000 
  21865 C(2)       77.7028   19.4626    9.9597 C.ar      1 UNK         0.0000 
  21866 C(3)       77.7098   18.0708    9.9633 C.ar      1 UNK         0.0000 
  21867 C(4)       76.6398   17.3562    9.4309 C.ar      1 UNK         0.0000 
  21868 C(5)       75.5442   18.0441    8.9107 C.ar      1 UNK         0.0000 
  21869 C(6)       75.5388   19.4316    8.9020 C.ar      1 UNK         0.0000 
  21870 C(7)       77.5119   22.4646    9.4070 C.2       1 UNK         0.0000 
  21871 C(8)       77.0711   23.8987    9.2860 C.3       1 UNK         0.0000 
  21872 H(1)       78.5433   20.0051   10.3744 H         1 UNK         0.0000 
  21873 H(2)       78.5606   17.5543   10.3903 H         1 UNK         0.0000 
  21874 H(3)       74.7010   17.4948    8.5104 H         1 UNK         0.0000 
  21875 H(4)       74.6882   19.9652    8.4961 H         1 UNK         0.0000 
  21876 H(5)       75.8310   15.6123    9.2841 H         1 UNK         0.0000 
  21877 H(6)       75.5952   21.9227    9.1910 H         1 UNK         0.0000 
  21878 H(7)       77.1493   24.3618   10.2352 H         1 UNK         0.0000 
  21879 H(8)       76.0743   23.9968    8.9420 H         1 UNK         0.0000 
  21880 H(9)       77.7515   24.4164    8.6612 H         1 UNK         0.0000 
  21881 O(1)       66.8844   28.1926   15.5017 O.3       1 UNK         0.0000 
  21882 O(2)       68.8822   29.4326    9.4577 O.2       1 UNK         0.0000 
  21883 N(1)       66.7010   29.4833   10.0886 N.am      1 UNK         0.0000 
  21884 C(1)       66.8005   29.1244   11.4515 C.ar      1 UNK         0.0000 
  21885 C(2)       67.8826   28.4385   12.0027 C.ar      1 UNK         0.0000 
  21886 C(3)       67.8897   28.1297   13.3599 C.ar      1 UNK         0.0000 
  21887 C(4)       66.8197   28.4924   14.1738 C.ar      1 UNK         0.0000 
  21888 C(5)       65.7240   29.1508   13.6167 C.ar      1 UNK         0.0000 
  21889 C(6)       65.7187   29.4636   12.2649 C.ar      1 UNK         0.0000 
  21890 C(7)       67.6918   29.6361    9.1951 C.2       1 UNK         0.0000 
  21891 C(8)       67.2510   30.0687    7.8224 C.3       1 UNK         0.0000 
  21892 H(1)       68.7232   28.1528   11.3824 H         1 UNK         0.0000 
  21893 H(2)       68.7405   27.5998   13.7701 H         1 UNK         0.0000 
  21894 H(3)       64.8809   29.4209   14.2404 H         1 UNK         0.0000 
  21895 H(4)       64.8681   29.9767   11.8334 H         1 UNK         0.0000 
  21896 H(5)       66.0109   28.2531   15.9075 H         1 UNK         0.0000 
  21897 H(6)       65.7751   29.7280    9.7711 H         1 UNK         0.0000 
  21898 H(7)       67.3292   29.2443    7.1624 H         1 UNK         0.0000 
  21899 H(8)       66.2542   30.4259    7.8021 H         1 UNK         0.0000 
  21900 H(9)       67.9314   30.7919    7.4544 H         1 UNK         0.0000 
  21901 O(1)       68.0171   24.8317   12.3169 O.3       1 UNK         0.0000 
  21902 O(2)       66.0193   18.6629   12.2011 O.2       1 UNK         0.0000 
  21903 N(1)       68.2004   19.2673   12.3888 N.am      1 UNK         0.0000 
  21904 C(1)       68.1010   20.6758   12.3376 C.ar      1 UNK         0.0000 
  21905 C(2)       67.0188   21.3640   11.7893 C.ar      1 UNK         0.0000 
  21906 C(3)       67.0118   22.7558   11.7858 C.ar      1 UNK         0.0000 
  21907 C(4)       68.0818   23.4704   12.3181 C.ar      1 UNK         0.0000 
  21908 C(5)       69.1774   22.7825   12.8383 C.ar      1 UNK         0.0000 
  21909 C(6)       69.1827   21.3950   12.8470 C.ar      1 UNK         0.0000 
  21910 C(7)       67.2096   18.3620   12.3420 C.2       1 UNK         0.0000 
  21911 C(8)       67.6505   16.9279   12.4630 C.3       1 UNK         0.0000 
  21912 H(1)       66.1783   20.8215   11.3746 H         1 UNK         0.0000 
  21913 H(2)       66.1610   23.2723   11.3587 H         1 UNK         0.0000 
  21914 H(3)       70.0206   23.3317   13.2386 H         1 UNK         0.0000 
  21915 H(4)       70.0333   20.8614   13.2530 H         1 UNK         0.0000 
  21916 H(5)       68.8905   25.2143   12.4649 H         1 UNK         0.0000 
  21917 H(6)       69.1264   18.9039   12.5580 H         1 UNK         0.0000 
  21918 H(7)       67.5722   16.4648   11.5138 H         1 UNK         0.0000 
  21919 H(8)       68.6473   16.8298   12.8070 H         1 UNK         0.0000 
  21920 H(9)       66.9700   16.4102   13.0878 H         1 UNK         0.0000 
  21921 O(1)       72.3510   33.0473   13.4097 O.3       1 UNK         0.0000 
  21922 O(2)       70.3532   31.8072   19.4537 O.2       1 UNK         0.0000 
  21923 N(1)       72.5343   31.7566   18.8228 N.am      1 UNK         0.0000 
  21924 C(1)       72.4349   32.1155   17.4599 C.ar      1 UNK         0.0000 
  21925 C(2)       71.3527   32.8014   16.9087 C.ar      1 UNK         0.0000 
  21926 C(3)       71.3457   33.1102   15.5516 C.ar      1 UNK         0.0000 
  21927 C(4)       72.4157   32.7475   14.7376 C.ar      1 UNK         0.0000 
  21928 C(5)       73.5113   32.0891   15.2947 C.ar      1 UNK         0.0000 
  21929 C(6)       73.5166   31.7763   16.6465 C.ar      1 UNK         0.0000 
  21930 C(7)       71.5435   31.6038   19.7163 C.2       1 UNK         0.0000 
  21931 C(8)       71.9844   31.1711   21.0890 C.3       1 UNK         0.0000 
  21932 H(1)       70.5122   33.0871   17.5290 H         1 UNK         0.0000 
  21933 H(2)       70.4949   33.6401   15.1413 H         1 UNK         0.0000 
  21934 H(3)       74.3545   31.8190   14.6710 H         1 UNK         0.0000 
  21935 H(4)       74.3672   31.2632   17.0780 H         1 UNK         0.0000 
  21936 H(5)       73.2244   32.9868   13.0039 H         1 UNK         0.0000 
  21937 H(6)       73.4603   31.5119   19.1403 H         1 UNK         0.0000 
  21938 H(7)       71.9061   31.9956   21.7490 H         1 UNK         0.0000 
  21939 H(8)       72.9812   30.8140   21.1093 H         1 UNK         0.0000 
  21940 H(9)       71.3039   30.4480   21.4570 H         1 UNK         0.0000 
  21941 O(1)       76.7045   21.7258   16.5945 O.3       1 UNK         0.0000 
  21942 O(2)       78.7023   27.8946   16.7103 O.2       1 UNK         0.0000 
  21943 N(1)       76.5211   27.2902   16.5226 N.am      1 UNK         0.0000 
  21944 C(1)       76.6206   25.8818   16.5738 C.ar      1 UNK         0.0000 
  21945 C(2)       77.7028   25.1936   17.1221 C.ar      1 UNK         0.0000 
  21946 C(3)       77.7098   23.8017   17.1257 C.ar      1 UNK         0.0000 
  21947 C(4)       76.6398   23.0871   16.5933 C.ar      1 UNK         0.0000 
  21948 C(5)       75.5442   23.7751   16.0731 C.ar      1 UNK         0.0000 
  21949 C(6)       75.5388   25.1626   16.0644 C.ar      1 UNK         0.0000 
  21950 C(7)       77.5119   28.1955   16.5694 C.2       1 UNK         0.0000 
  21951 C(8)       77.0711   29.6296   16.4484 C.3       1 UNK         0.0000 
  21952 H(1)       78.5433   25.7361   17.5368 H         1 UNK         0.0000 
  21953 H(2)       78.5606   23.2853   17.5527 H         1 UNK         0.0000 
  21954 H(3)       74.7010   23.2258   15.6728 H         1 UNK         0.0000 
  21955 H(4)       74.6882   25.6961   15.6585 H         1 UNK         0.0000 
  21956 H(5)       75.8310   21.3432   16.4465 H         1 UNK         0.0000 
  21957 H(6)       75.5952   27.6537   16.3534 H         1 UNK         0.0000 
  21958 H(7)       77.1493   30.0928   17.3976 H         1 UNK         0.0000 
  21959 H(8)       76.0743   29.7278   16.1044 H         1 UNK         0.0000 
  21960 H(9)       77.7515   30.1473   15.8236 H         1 UNK         0.0000 
  21961 O(1)       72.3706   19.2412   22.6641 O.3       1 UNK         0.0000 
  21962 O(2)       74.3684   20.4813   16.6201 O.2       1 UNK         0.0000 
  21963 N(1)       72.1873   20.5319   17.2510 N.am      1 UNK         0.0000 
  21964 C(1)       72.2867   20.1730   18.6139 C.ar      1 UNK         0.0000 
  21965 C(2)       73.3689   19.4871   19.1651 C.ar      1 UNK         0.0000 
  21966 C(3)       73.3759   19.1784   20.5223 C.ar      1 UNK         0.0000 
  21967 C(4)       72.3059   19.5410   21.3362 C.ar      1 UNK         0.0000 
  21968 C(5)       71.2103   20.1994   20.7791 C.ar      1 UNK         0.0000 
  21969 C(6)       71.2050   20.5123   19.4273 C.ar      1 UNK         0.0000 
  21970 C(7)       73.1780   20.6847   16.3575 C.2       1 UNK         0.0000 
  21971 C(8)       72.7372   21.1174   14.9848 C.3       1 UNK         0.0000 
  21972 H(1)       74.2094   19.2015   18.5448 H         1 UNK         0.0000 
  21973 H(2)       74.2267   18.6484   20.9325 H         1 UNK         0.0000 
  21974 H(3)       70.3671   20.4695   21.4028 H         1 UNK         0.0000 
  21975 H(4)       70.3543   21.0253   18.9958 H         1 UNK         0.0000 
  21976 H(5)       71.4971   19.3017   23.0699 H         1 UNK         0.0000 
  21977 H(6)       71.2613   20.7767   16.9335 H         1 UNK         0.0000 
  21978 H(7)       72.8154   20.2929   14.3248 H         1 UNK         0.0000 
  21979 H(8)       71.7404   21.4745   14.9645 H         1 UNK         0.0000 
  21980 H(9)       73.4177   21.8405   14.6168 H         1 UNK         0.0000 
  21981 O(1)       75.0941   30.5627   19.4793 O.3       1 UNK         0.0000 
  21982 O(2)       73.0963   24.3939   19.3635 O.2       1 UNK         0.0000 
  21983 N(1)       75.2774   24.9983   19.5512 N.am      1 UNK         0.0000 
  21984 C(1)       75.1780   26.4068   19.5000 C.ar      1 UNK         0.0000 
  21985 C(2)       74.0958   27.0950   18.9517 C.ar      1 UNK         0.0000 
  21986 C(3)       74.0888   28.4868   18.9482 C.ar      1 UNK         0.0000 
  21987 C(4)       75.1588   29.2014   19.4805 C.ar      1 UNK         0.0000 
  21988 C(5)       76.2544   28.5135   20.0007 C.ar      1 UNK         0.0000 
  21989 C(6)       76.2597   27.1259   20.0094 C.ar      1 UNK         0.0000 
  21990 C(7)       74.2866   24.0930   19.5044 C.2       1 UNK         0.0000 
  21991 C(8)       74.7275   22.6589   19.6254 C.3       1 UNK         0.0000 
  21992 H(1)       73.2553   26.5524   18.5370 H         1 UNK         0.0000 
  21993 H(2)       73.2380   29.0033   18.5211 H         1 UNK         0.0000 
  21994 H(3)       77.0976   29.0627   20.4010 H         1 UNK         0.0000 
  21995 H(4)       77.1103   26.5924   20.4154 H         1 UNK         0.0000 
  21996 H(5)       75.9675   30.9453   19.6273 H         1 UNK         0.0000 
  21997 H(6)       76.2034   24.6348   19.7204 H         1 UNK         0.0000 
  21998 H(7)       74.6492   22.1958   18.6762 H         1 UNK         0.0000 
  21999 H(8)       75.7243   22.5607   19.9694 H         1 UNK         0.0000 
  22000 H(9)       74.0470   22.1412   20.2502 H         1 UNK         0.0000 
  22001 O(1)       70.7602   24.0960   20.5721 O.3       1 UNK         0.0000 
  22002 O(2)       68.7624   22.8559   26.6161 O.2       1 UNK         0.0000 
  22003 N(1)       70.9435   22.8052   25.9852 N.am      1 UNK         0.0000 
  22004 C(1)       70.8441   23.1642   24.6223 C.ar      1 UNK         0.0000 
  22005 C(2)       69.7619   23.8500   24.0711 C.ar      1 UNK         0.0000 
  22006 C(3)       69.7549   24.1588   22.7140 C.ar      1 UNK         0.0000 
  22007 C(4)       70.8249   23.7962   21.9000 C.ar      1 UNK         0.0000 
  22008 C(5)       71.9205   23.1378   22.4571 C.ar      1 UNK         0.0000 
  22009 C(6)       71.9258   22.8249   23.8089 C.ar      1 UNK         0.0000 
  22010 C(7)       69.9528   22.6524   26.8787 C.2       1 UNK         0.0000 
  22011 C(8)       70.3936   22.2198   28.2514 C.3       1 UNK         0.0000 
  22012 H(1)       68.9214   24.1357   24.6914 H         1 UNK         0.0000 
  22013 H(2)       68.9041   24.6887   22.3037 H         1 UNK         0.0000 
  22014 H(3)       72.7637   22.8677   21.8334 H         1 UNK         0.0000 
  22015 H(4)       72.7764   22.3118   24.2404 H         1 UNK         0.0000 
  22016 H(5)       71.6336   24.0354   20.1663 H         1 UNK         0.0000 
  22017 H(6)       71.8695   22.5605   26.3027 H         1 UNK         0.0000 
  22018 H(7)       70.3153   23.0442   28.9114 H         1 UNK         0.0000 
  22019 H(8)       71.3904   21.8626   28.2717 H         1 UNK         0.0000 
  22020 H(9)       69.7131   21.4967   28.6194 H         1 UNK         0.0000 
  22021 O(1)       69.6275   27.4568   23.7569 O.3       1 UNK         0.0000 
  22022 O(2)       71.6253   33.6256   23.8727 O.2       1 UNK         0.0000 
  22023 N(1)       69.4441   33.0212   23.6850 N.am      1 UNK         0.0000 
  22024 C(1)       69.5436   31.6127   23.7362 C.ar      1 UNK         0.0000 
  22025 C(2)       70.6258   30.9245   24.2845 C.ar      1 UNK         0.0000 
  22026 C(3)       70.6328   29.5327   24.2881 C.ar      1 UNK         0.0000 
  22027 C(4)       69.5628   28.8181   23.7557 C.ar      1 UNK         0.0000 
  22028 C(5)       68.4672   29.5060   23.2355 C.ar      1 UNK         0.0000 
  22029 C(6)       68.4618   30.8936   23.2268 C.ar      1 UNK         0.0000 
  22030 C(7)       70.4349   33.9265   23.7318 C.2       1 UNK         0.0000 
  22031 C(8)       69.9941   35.3606   23.6108 C.3       1 UNK         0.0000 
  22032 H(1)       71.4663   31.4671   24.6992 H         1 UNK         0.0000 
  22033 H(2)       71.4836   29.0162   24.7151 H         1 UNK         0.0000 
  22034 H(3)       67.6240   28.9568   22.8352 H         1 UNK         0.0000 
  22035 H(4)       67.6112   31.4271   22.8209 H         1 UNK         0.0000 
  22036 H(5)       68.7540   27.0742   23.6089 H         1 UNK         0.0000 
  22037 H(6)       68.5182   33.3846   23.5158 H         1 UNK         0.0000 
  22038 H(7)       70.0723   35.8237   24.5600 H         1 UNK         0.0000 
  22039 H(8)       68.9973   35.4588   23.2668 H         1 UNK         0.0000 
  22040 H(9)       70.6745   35.8783   22.9860 H         1 UNK         0.0000 
  22041 O(1)       73.9614   22.4616    8.3393 O.3       1 UNK         0.0000 
  22042 O(2)       75.9592   23.7017    2.2953 O.2       1 UNK         0.0000 
  22043 N(1)       73.7780   23.7523    2.9262 N.am      1 UNK         0.0000 
  22044 C(1)       73.8775   23.3934    4.2891 C.ar      1 UNK         0.0000 
  22045 C(2)       74.9596   22.7075    4.8403 C.ar      1 UNK         0.0000 
  22046 C(3)       74.9667   22.3988    6.1975 C.ar      1 UNK         0.0000 
  22047 C(4)       73.8967   22.7614    7.0114 C.ar      1 UNK         0.0000 
  22048 C(5)       72.8010   23.4198    6.4543 C.ar      1 UNK         0.0000 
  22049 C(6)       72.7957   23.7327    5.1025 C.ar      1 UNK         0.0000 
  22050 C(7)       74.7688   23.9051    2.0327 C.2       1 UNK         0.0000 
  22051 C(8)       74.3280   24.3378    0.6600 C.3       1 UNK         0.0000 
  22052 H(1)       75.8002   22.4219    4.2200 H         1 UNK         0.0000 
  22053 H(2)       75.8175   21.8688    6.6077 H         1 UNK         0.0000 
  22054 H(3)       71.9579   23.6899    7.0780 H         1 UNK         0.0000 
  22055 H(4)       71.9451   24.2457    4.6710 H         1 UNK         0.0000 
  22056 H(5)       73.0879   22.5221    8.7451 H         1 UNK         0.0000 
  22057 H(6)       72.8521   23.9971    2.6087 H         1 UNK         0.0000 
  22058 H(7)       74.4062   23.5133    0.0000 H         1 UNK         0.0000 
  22059 H(8)       73.3312   24.6949    0.6397 H         1 UNK         0.0000 
  22060 H(9)       75.0084   25.0609    0.2920 H         1 UNK         0.0000 
  22061 O(1)       76.6849   33.7831    5.1545 O.3       1 UNK         0.0000 
  22062 O(2)       74.6871   27.6143    5.0387 O.2       1 UNK         0.0000 
  22063 N(1)       76.8682   28.2187    5.2264 N.am      1 UNK         0.0000 
  22064 C(1)       76.7687   29.6272    5.1752 C.ar      1 UNK         0.0000 
  22065 C(2)       75.6866   30.3154    4.6269 C.ar      1 UNK         0.0000 
  22066 C(3)       75.6796   31.7072    4.6234 C.ar      1 UNK         0.0000 
  22067 C(4)       76.7496   32.4218    5.1557 C.ar      1 UNK         0.0000 
  22068 C(5)       77.8452   31.7339    5.6759 C.ar      1 UNK         0.0000 
  22069 C(6)       77.8505   30.3463    5.6846 C.ar      1 UNK         0.0000 
  22070 C(7)       75.8774   27.3134    5.1796 C.2       1 UNK         0.0000 
  22071 C(8)       76.3183   25.8793    5.3006 C.3       1 UNK         0.0000 
  22072 H(1)       74.8461   29.7728    4.2122 H         1 UNK         0.0000 
  22073 H(2)       74.8288   32.2236    4.1963 H         1 UNK         0.0000 
  22074 H(3)       78.6884   32.2831    6.0762 H         1 UNK         0.0000 
  22075 H(4)       78.7011   29.8128    6.0906 H         1 UNK         0.0000 
  22076 H(5)       77.5583   34.1657    5.3025 H         1 UNK         0.0000 
  22077 H(6)       77.7942   27.8552    5.3956 H         1 UNK         0.0000 
  22078 H(7)       76.2400   25.4162    4.3514 H         1 UNK         0.0000 
  22079 H(8)       77.3151   25.7811    5.6446 H         1 UNK         0.0000 
  22080 H(9)       75.6378   25.3616    5.9254 H         1 UNK         0.0000 
  22081 O(1)       73.9418   41.9987    6.2473 O.3       1 UNK         0.0000 
  22082 O(2)       71.9440   40.7586   12.2913 O.2       1 UNK         0.0000 
  22083 N(1)       74.1251   40.7080   11.6604 N.am      1 UNK         0.0000 
  22084 C(1)       74.0256   41.0669   10.2975 C.ar      1 UNK         0.0000 
  22085 C(2)       72.9435   41.7528    9.7463 C.ar      1 UNK         0.0000 
  22086 C(3)       72.9365   42.0615    8.3892 C.ar      1 UNK         0.0000 
  22087 C(4)       74.0065   41.6989    7.5752 C.ar      1 UNK         0.0000 
  22088 C(5)       75.1021   41.0405    8.1323 C.ar      1 UNK         0.0000 
  22089 C(6)       75.1074   40.7276    9.4841 C.ar      1 UNK         0.0000 
  22090 C(7)       73.1343   40.5551   12.5539 C.2       1 UNK         0.0000 
  22091 C(8)       73.5752   40.1225   13.9266 C.3       1 UNK         0.0000 
  22092 H(1)       72.1030   42.0384   10.3666 H         1 UNK         0.0000 
  22093 H(2)       72.0856   42.5914    7.9789 H         1 UNK         0.0000 
  22094 H(3)       75.9453   40.7704    7.5086 H         1 UNK         0.0000 
  22095 H(4)       75.9580   40.2146    9.9156 H         1 UNK         0.0000 
  22096 H(5)       74.8152   41.9382    5.8415 H         1 UNK         0.0000 
  22097 H(6)       75.0511   40.4632   11.9779 H         1 UNK         0.0000 
  22098 H(7)       73.4969   40.9470   14.5866 H         1 UNK         0.0000 
  22099 H(8)       74.5720   39.7654   13.9469 H         1 UNK         0.0000 
  22100 H(9)       72.8947   39.3994   14.2946 H         1 UNK         0.0000 
  22101 O(1)       78.2953   30.6772    9.4321 O.3       1 UNK         0.0000 
  22102 O(2)       80.2931   36.8460    9.5479 O.2       1 UNK         0.0000 
  22103 N(1)       78.1119   36.2416    9.3602 N.am      1 UNK         0.0000 
  22104 C(1)       78.2114   34.8331    9.4114 C.ar      1 UNK         0.0000 
  22105 C(2)       79.2935   34.1449    9.9597 C.ar      1 UNK         0.0000 
  22106 C(3)       79.3006   32.7531    9.9633 C.ar      1 UNK         0.0000 
  22107 C(4)       78.2305   32.0385    9.4309 C.ar      1 UNK         0.0000 
  22108 C(5)       77.1349   32.7264    8.9107 C.ar      1 UNK         0.0000 
  22109 C(6)       77.1296   34.1140    8.9020 C.ar      1 UNK         0.0000 
  22110 C(7)       79.1027   37.1469    9.4070 C.2       1 UNK         0.0000 
  22111 C(8)       78.6619   38.5810    9.2860 C.3       1 UNK         0.0000 
  22112 H(1)       80.1341   34.6875   10.3744 H         1 UNK         0.0000 
  22113 H(2)       80.1514   32.2366   10.3903 H         1 UNK         0.0000 
  22114 H(3)       76.2918   32.1772    8.5104 H         1 UNK         0.0000 
  22115 H(4)       76.2790   34.6475    8.4961 H         1 UNK         0.0000 
  22116 H(5)       77.4218   30.2946    9.2841 H         1 UNK         0.0000 
  22117 H(6)       77.1860   36.6050    9.1910 H         1 UNK         0.0000 
  22118 H(7)       78.7401   39.0441   10.2352 H         1 UNK         0.0000 
  22119 H(8)       77.6651   38.6792    8.9420 H         1 UNK         0.0000 
  22120 H(9)       79.3423   39.0987    8.6612 H         1 UNK         0.0000 
  22121 O(1)       68.4752   42.8749   15.5017 O.3       1 UNK         0.0000 
  22122 O(2)       70.4730   44.1150    9.4577 O.2       1 UNK         0.0000 
  22123 N(1)       68.2918   44.1656   10.0886 N.am      1 UNK         0.0000 
  22124 C(1)       68.3913   43.8067   11.4515 C.ar      1 UNK         0.0000 
  22125 C(2)       69.4734   43.1208   12.0027 C.ar      1 UNK         0.0000 
  22126 C(3)       69.4805   42.8120   13.3599 C.ar      1 UNK         0.0000 
  22127 C(4)       68.4104   43.1747   14.1738 C.ar      1 UNK         0.0000 
  22128 C(5)       67.3148   43.8331   13.6167 C.ar      1 UNK         0.0000 
  22129 C(6)       67.3095   44.1460   12.2649 C.ar      1 UNK         0.0000 
  22130 C(7)       69.2826   44.3184    9.1951 C.2       1 UNK         0.0000 
  22131 C(8)       68.8417   44.7511    7.8224 C.3       1 UNK         0.0000 
  22132 H(1)       70.3140   42.8352   11.3824 H         1 UNK         0.0000 
  22133 H(2)       70.3313   42.2821   13.7701 H         1 UNK         0.0000 
  22134 H(3)       66.4717   44.1032   14.2404 H         1 UNK         0.0000 
  22135 H(4)       66.4589   44.6590   11.8334 H         1 UNK         0.0000 
  22136 H(5)       67.6017   42.9354   15.9075 H         1 UNK         0.0000 
  22137 H(6)       67.3659   44.4103    9.7711 H         1 UNK         0.0000 
  22138 H(7)       68.9200   43.9266    7.1624 H         1 UNK         0.0000 
  22139 H(8)       67.8450   45.1082    7.8021 H         1 UNK         0.0000 
  22140 H(9)       69.5222   45.4742    7.4544 H         1 UNK         0.0000 
  22141 O(1)       69.6079   39.5141   12.3169 O.3       1 UNK         0.0000 
  22142 O(2)       67.6101   33.3453   12.2011 O.2       1 UNK         0.0000 
  22143 N(1)       69.7912   33.9497   12.3888 N.am      1 UNK         0.0000 
  22144 C(1)       69.6917   35.3581   12.3376 C.ar      1 UNK         0.0000 
  22145 C(2)       68.6096   36.0463   11.7893 C.ar      1 UNK         0.0000 
  22146 C(3)       68.6026   37.4381   11.7858 C.ar      1 UNK         0.0000 
  22147 C(4)       69.6726   38.1527   12.3181 C.ar      1 UNK         0.0000 
  22148 C(5)       70.7682   37.4648   12.8383 C.ar      1 UNK         0.0000 
  22149 C(6)       70.7735   36.0773   12.8470 C.ar      1 UNK         0.0000 
  22150 C(7)       68.8004   33.0444   12.3420 C.2       1 UNK         0.0000 
  22151 C(8)       69.2413   31.6102   12.4630 C.3       1 UNK         0.0000 
  22152 H(1)       67.7691   35.5038   11.3746 H         1 UNK         0.0000 
  22153 H(2)       67.7518   37.9546   11.3587 H         1 UNK         0.0000 
  22154 H(3)       71.6114   38.0141   13.2386 H         1 UNK         0.0000 
  22155 H(4)       71.6241   35.5438   13.2530 H         1 UNK         0.0000 
  22156 H(5)       70.4813   39.8967   12.4649 H         1 UNK         0.0000 
  22157 H(6)       70.7172   33.5862   12.5580 H         1 UNK         0.0000 
  22158 H(7)       69.1630   31.1471   11.5138 H         1 UNK         0.0000 
  22159 H(8)       70.2381   31.5121   12.8070 H         1 UNK         0.0000 
  22160 H(9)       68.5608   31.0926   13.0878 H         1 UNK         0.0000 
  22161 O(1)       73.9418   47.7297   13.4097 O.3       1 UNK         0.0000 
  22162 O(2)       71.9440   46.4896   19.4537 O.2       1 UNK         0.0000 
  22163 N(1)       74.1251   46.4389   18.8228 N.am      1 UNK         0.0000 
  22164 C(1)       74.0256   46.7979   17.4599 C.ar      1 UNK         0.0000 
  22165 C(2)       72.9435   47.4837   16.9087 C.ar      1 UNK         0.0000 
  22166 C(3)       72.9365   47.7925   15.5516 C.ar      1 UNK         0.0000 
  22167 C(4)       74.0065   47.4298   14.7376 C.ar      1 UNK         0.0000 
  22168 C(5)       75.1021   46.7715   15.2947 C.ar      1 UNK         0.0000 
  22169 C(6)       75.1074   46.4586   16.6465 C.ar      1 UNK         0.0000 
  22170 C(7)       73.1343   46.2861   19.7163 C.2       1 UNK         0.0000 
  22171 C(8)       73.5752   45.8535   21.0890 C.3       1 UNK         0.0000 
  22172 H(1)       72.1030   47.7694   17.5290 H         1 UNK         0.0000 
  22173 H(2)       72.0856   48.3224   15.1413 H         1 UNK         0.0000 
  22174 H(3)       75.9453   46.5014   14.6710 H         1 UNK         0.0000 
  22175 H(4)       75.9580   45.9455   17.0780 H         1 UNK         0.0000 
  22176 H(5)       74.8152   47.6691   13.0039 H         1 UNK         0.0000 
  22177 H(6)       75.0511   46.1942   19.1403 H         1 UNK         0.0000 
  22178 H(7)       73.4969   46.6779   21.7490 H         1 UNK         0.0000 
  22179 H(8)       74.5720   45.4963   21.1093 H         1 UNK         0.0000 
  22180 H(9)       72.8947   45.1304   21.4570 H         1 UNK         0.0000 
  22181 O(1)       78.2953   36.4082   16.5945 O.3       1 UNK         0.0000 
  22182 O(2)       80.2931   42.5769   16.7103 O.2       1 UNK         0.0000 
  22183 N(1)       78.1119   41.9725   16.5226 N.am      1 UNK         0.0000 
  22184 C(1)       78.2114   40.5641   16.5738 C.ar      1 UNK         0.0000 
  22185 C(2)       79.2935   39.8759   17.1221 C.ar      1 UNK         0.0000 
  22186 C(3)       79.3006   38.4841   17.1257 C.ar      1 UNK         0.0000 
  22187 C(4)       78.2305   37.7695   16.5933 C.ar      1 UNK         0.0000 
  22188 C(5)       77.1349   38.4574   16.0731 C.ar      1 UNK         0.0000 
  22189 C(6)       77.1296   39.8449   16.0644 C.ar      1 UNK         0.0000 
  22190 C(7)       79.1027   42.8779   16.5694 C.2       1 UNK         0.0000 
  22191 C(8)       78.6619   44.3120   16.4484 C.3       1 UNK         0.0000 
  22192 H(1)       80.1341   40.4184   17.5368 H         1 UNK         0.0000 
  22193 H(2)       80.1514   37.9676   17.5527 H         1 UNK         0.0000 
  22194 H(3)       76.2918   37.9081   15.6728 H         1 UNK         0.0000 
  22195 H(4)       76.2790   40.3784   15.6585 H         1 UNK         0.0000 
  22196 H(5)       77.4218   36.0256   16.4465 H         1 UNK         0.0000 
  22197 H(6)       77.1860   42.3360   16.3534 H         1 UNK         0.0000 
  22198 H(7)       78.7401   44.7751   17.3976 H         1 UNK         0.0000 
  22199 H(8)       77.6651   44.4101   16.1044 H         1 UNK         0.0000 
  22200 H(9)       79.3423   44.8296   15.8236 H         1 UNK         0.0000 
  22201 O(1)       73.9614   33.9235   22.6641 O.3       1 UNK         0.0000 
  22202 O(2)       75.9592   35.1636   16.6201 O.2       1 UNK         0.0000 
  22203 N(1)       73.7780   35.2142   17.2510 N.am      1 UNK         0.0000 
  22204 C(1)       73.8775   34.8553   18.6139 C.ar      1 UNK         0.0000 
  22205 C(2)       74.9596   34.1694   19.1651 C.ar      1 UNK         0.0000 
  22206 C(3)       74.9667   33.8607   20.5223 C.ar      1 UNK         0.0000 
  22207 C(4)       73.8967   34.2233   21.3362 C.ar      1 UNK         0.0000 
  22208 C(5)       72.8010   34.8817   20.7791 C.ar      1 UNK         0.0000 
  22209 C(6)       72.7957   35.1946   19.4273 C.ar      1 UNK         0.0000 
  22210 C(7)       74.7688   35.3671   16.3575 C.2       1 UNK         0.0000 
  22211 C(8)       74.3280   35.7997   14.9848 C.3       1 UNK         0.0000 
  22212 H(1)       75.8002   33.8838   18.5448 H         1 UNK         0.0000 
  22213 H(2)       75.8175   33.3308   20.9325 H         1 UNK         0.0000 
  22214 H(3)       71.9579   35.1518   21.4028 H         1 UNK         0.0000 
  22215 H(4)       71.9451   35.7077   18.9958 H         1 UNK         0.0000 
  22216 H(5)       73.0879   33.9840   23.0699 H         1 UNK         0.0000 
  22217 H(6)       72.8521   35.4590   16.9335 H         1 UNK         0.0000 
  22218 H(7)       74.4062   34.9753   14.3248 H         1 UNK         0.0000 
  22219 H(8)       73.3312   36.1568   14.9645 H         1 UNK         0.0000 
  22220 H(9)       75.0084   36.5228   14.6168 H         1 UNK         0.0000 
  22221 O(1)       76.6849   45.2450   19.4793 O.3       1 UNK         0.0000 
  22222 O(2)       74.6871   39.0762   19.3635 O.2       1 UNK         0.0000 
  22223 N(1)       76.8682   39.6806   19.5512 N.am      1 UNK         0.0000 
  22224 C(1)       76.7687   41.0891   19.5000 C.ar      1 UNK         0.0000 
  22225 C(2)       75.6866   41.7773   18.9517 C.ar      1 UNK         0.0000 
  22226 C(3)       75.6796   43.1691   18.9482 C.ar      1 UNK         0.0000 
  22227 C(4)       76.7496   43.8837   19.4805 C.ar      1 UNK         0.0000 
  22228 C(5)       77.8452   43.1958   20.0007 C.ar      1 UNK         0.0000 
  22229 C(6)       77.8505   41.8082   20.0094 C.ar      1 UNK         0.0000 
  22230 C(7)       75.8774   38.7753   19.5044 C.2       1 UNK         0.0000 
  22231 C(8)       76.3183   37.3412   19.6254 C.3       1 UNK         0.0000 
  22232 H(1)       74.8461   41.2348   18.5370 H         1 UNK         0.0000 
  22233 H(2)       74.8288   43.6856   18.5211 H         1 UNK         0.0000 
  22234 H(3)       78.6884   43.7450   20.4010 H         1 UNK         0.0000 
  22235 H(4)       78.7011   41.2747   20.4154 H         1 UNK         0.0000 
  22236 H(5)       77.5583   45.6276   19.6273 H         1 UNK         0.0000 
  22237 H(6)       77.7942   39.3172   19.7204 H         1 UNK         0.0000 
  22238 H(7)       76.2400   36.8781   18.6762 H         1 UNK         0.0000 
  22239 H(8)       77.3151   37.2431   19.9694 H         1 UNK         0.0000 
  22240 H(9)       75.6378   36.8235   20.2502 H         1 UNK         0.0000 
  22241 O(1)       72.3510   38.7783   20.5721 O.3       1 UNK         0.0000 
  22242 O(2)       70.3532   37.5382   26.6161 O.2       1 UNK         0.0000 
  22243 N(1)       72.5343   37.4876   25.9852 N.am      1 UNK         0.0000 
  22244 C(1)       72.4349   37.8465   24.6223 C.ar      1 UNK         0.0000 
  22245 C(2)       71.3527   38.5324   24.0711 C.ar      1 UNK         0.0000 
  22246 C(3)       71.3457   38.8411   22.7140 C.ar      1 UNK         0.0000 
  22247 C(4)       72.4157   38.4785   21.9000 C.ar      1 UNK         0.0000 
  22248 C(5)       73.5113   37.8201   22.4571 C.ar      1 UNK         0.0000 
  22249 C(6)       73.5166   37.5072   23.8089 C.ar      1 UNK         0.0000 
  22250 C(7)       71.5435   37.3347   26.8787 C.2       1 UNK         0.0000 
  22251 C(8)       71.9844   36.9021   28.2514 C.3       1 UNK         0.0000 
  22252 H(1)       70.5122   38.8180   24.6914 H         1 UNK         0.0000 
  22253 H(2)       70.4949   39.3710   22.3037 H         1 UNK         0.0000 
  22254 H(3)       74.3545   37.5500   21.8334 H         1 UNK         0.0000 
  22255 H(4)       74.3672   36.9942   24.2404 H         1 UNK         0.0000 
  22256 H(5)       73.2244   38.7178   20.1663 H         1 UNK         0.0000 
  22257 H(6)       73.4603   37.2428   26.3027 H         1 UNK         0.0000 
  22258 H(7)       71.9061   37.7266   28.9114 H         1 UNK         0.0000 
  22259 H(8)       72.9812   36.5450   28.2717 H         1 UNK         0.0000 
  22260 H(9)       71.3039   36.1790   28.6194 H         1 UNK         0.0000 
  22261 O(1)       71.2183   42.1391   23.7569 O.3       1 UNK         0.0000 
  22262 O(2)       73.2161   48.3079   23.8727 O.2       1 UNK         0.0000 
  22263 N(1)       71.0349   47.7035   23.6850 N.am      1 UNK         0.0000 
  22264 C(1)       71.1344   46.2951   23.7362 C.ar      1 UNK         0.0000 
  22265 C(2)       72.2165   45.6068   24.2845 C.ar      1 UNK         0.0000 
  22266 C(3)       72.2236   44.2150   24.2881 C.ar      1 UNK         0.0000 
  22267 C(4)       71.1535   43.5004   23.7557 C.ar      1 UNK         0.0000 
  22268 C(5)       70.0579   44.1884   23.2355 C.ar      1 UNK         0.0000 
  22269 C(6)       70.0526   45.5759   23.2268 C.ar      1 UNK         0.0000 
  22270 C(7)       72.0257   48.6088   23.7318 C.2       1 UNK         0.0000 
  22271 C(8)       71.5849   50.0429   23.6108 C.3       1 UNK         0.0000 
  22272 H(1)       73.0571   46.1494   24.6992 H         1 UNK         0.0000 
  22273 H(2)       73.0744   43.6986   24.7151 H         1 UNK         0.0000 
  22274 H(3)       69.2148   43.6391   22.8352 H         1 UNK         0.0000 
  22275 H(4)       69.2020   46.1094   22.8209 H         1 UNK         0.0000 
  22276 H(5)       70.3448   41.7565   23.6089 H         1 UNK         0.0000 
  22277 H(6)       70.1090   48.0670   23.5158 H         1 UNK         0.0000 
  22278 H(7)       71.6631   50.5060   24.5600 H         1 UNK         0.0000 
  22279 H(8)       70.5881   50.1411   23.2668 H         1 UNK         0.0000 
  22280 H(9)       72.2653   50.5606   22.9860 H         1 UNK         0.0000 
  22281 O(1)       75.5522   37.1439    8.3393 O.3       1 UNK         0.0000 
  22282 O(2)       77.5500   38.3840    2.2953 O.2       1 UNK         0.0000 
  22283 N(1)       75.3688   38.4346    2.9262 N.am      1 UNK         0.0000 
  22284 C(1)       75.4683   38.0757    4.2891 C.ar      1 UNK         0.0000 
  22285 C(2)       76.5504   37.3898    4.8403 C.ar      1 UNK         0.0000 
  22286 C(3)       76.5575   37.0811    6.1975 C.ar      1 UNK         0.0000 
  22287 C(4)       75.4874   37.4437    7.0114 C.ar      1 UNK         0.0000 
  22288 C(5)       74.3918   38.1021    6.4543 C.ar      1 UNK         0.0000 
  22289 C(6)       74.3865   38.4150    5.1025 C.ar      1 UNK         0.0000 
  22290 C(7)       76.3596   38.5875    2.0327 C.2       1 UNK         0.0000 
  22291 C(8)       75.9187   39.0201    0.6600 C.3       1 UNK         0.0000 
  22292 H(1)       77.3910   37.1042    4.2200 H         1 UNK         0.0000 
  22293 H(2)       77.4083   36.5512    6.6077 H         1 UNK         0.0000 
  22294 H(3)       73.5487   38.3722    7.0780 H         1 UNK         0.0000 
  22295 H(4)       73.5359   38.9281    4.6710 H         1 UNK         0.0000 
  22296 H(5)       74.6787   37.2044    8.7451 H         1 UNK         0.0000 
  22297 H(6)       74.4429   38.6794    2.6087 H         1 UNK         0.0000 
  22298 H(7)       75.9970   38.1956    0.0000 H         1 UNK         0.0000 
  22299 H(8)       74.9220   39.3772    0.6397 H         1 UNK         0.0000 
  22300 H(9)       76.5992   39.7432    0.2920 H         1 UNK         0.0000 
  22301 O(1)       78.2757   48.4654    5.1545 O.3       1 UNK         0.0000 
  22302 O(2)       76.2778   42.2966    5.0387 O.2       1 UNK         0.0000 
  22303 N(1)       78.4590   42.9010    5.2264 N.am      1 UNK         0.0000 
  22304 C(1)       78.3595   44.3095    5.1752 C.ar      1 UNK         0.0000 
  22305 C(2)       77.2774   44.9977    4.6269 C.ar      1 UNK         0.0000 
  22306 C(3)       77.2703   46.3895    4.6234 C.ar      1 UNK         0.0000 
  22307 C(4)       78.3404   47.1041    5.1557 C.ar      1 UNK         0.0000 
  22308 C(5)       79.4360   46.4162    5.6759 C.ar      1 UNK         0.0000 
  22309 C(6)       79.4413   45.0286    5.6846 C.ar      1 UNK         0.0000 
  22310 C(7)       77.4682   41.9957    5.1796 C.2       1 UNK         0.0000 
  22311 C(8)       77.9091   40.5616    5.3006 C.3       1 UNK         0.0000 
  22312 H(1)       76.4368   44.4552    4.2122 H         1 UNK         0.0000 
  22313 H(2)       76.4195   46.9060    4.1963 H         1 UNK         0.0000 
  22314 H(3)       80.2791   46.9654    6.0762 H         1 UNK         0.0000 
  22315 H(4)       80.2919   44.4951    6.0906 H         1 UNK         0.0000 
  22316 H(5)       79.1491   48.8480    5.3025 H         1 UNK         0.0000 
  22317 H(6)       79.3850   42.5376    5.3956 H         1 UNK         0.0000 
  22318 H(7)       77.8308   40.0985    4.3514 H         1 UNK         0.0000 
  22319 H(8)       78.9058   40.4635    5.6446 H         1 UNK         0.0000 
  22320 H(9)       77.2286   40.0439    5.9254 H         1 UNK         0.0000 
  22321 O(1)       75.5326   56.6810    6.2473 O.3       1 UNK         0.0000 
  22322 O(2)       73.5347   55.4409   12.2913 O.2       1 UNK         0.0000 
  22323 N(1)       75.7159   55.3903   11.6604 N.am      1 UNK         0.0000 
  22324 C(1)       75.6164   55.7492   10.2975 C.ar      1 UNK         0.0000 
  22325 C(2)       74.5343   56.4351    9.7463 C.ar      1 UNK         0.0000 
  22326 C(3)       74.5272   56.7439    8.3892 C.ar      1 UNK         0.0000 
  22327 C(4)       75.5973   56.3812    7.5752 C.ar      1 UNK         0.0000 
  22328 C(5)       76.6929   55.7228    8.1323 C.ar      1 UNK         0.0000 
  22329 C(6)       76.6982   55.4100    9.4841 C.ar      1 UNK         0.0000 
  22330 C(7)       74.7251   55.2375   12.5539 C.2       1 UNK         0.0000 
  22331 C(8)       75.1660   54.8048   13.9266 C.3       1 UNK         0.0000 
  22332 H(1)       73.6937   56.7208   10.3666 H         1 UNK         0.0000 
  22333 H(2)       73.6764   57.2738    7.9789 H         1 UNK         0.0000 
  22334 H(3)       77.5360   55.4527    7.5086 H         1 UNK         0.0000 
  22335 H(4)       77.5488   54.8969    9.9156 H         1 UNK         0.0000 
  22336 H(5)       76.4060   56.6205    5.8415 H         1 UNK         0.0000 
  22337 H(6)       76.6418   55.1456   11.9779 H         1 UNK         0.0000 
  22338 H(7)       75.0877   55.6293   14.5866 H         1 UNK         0.0000 
  22339 H(8)       76.1627   54.4477   13.9469 H         1 UNK         0.0000 
  22340 H(9)       74.4855   54.0817   14.2946 H         1 UNK         0.0000 
  22341 O(1)       79.8860   45.3595    9.4321 O.3       1 UNK         0.0000 
  22342 O(2)       81.8839   51.5283    9.5479 O.2       1 UNK         0.0000 
  22343 N(1)       79.7027   50.9239    9.3602 N.am      1 UNK         0.0000 
  22344 C(1)       79.8022   49.5155    9.4114 C.ar      1 UNK         0.0000 
  22345 C(2)       80.8843   48.8272    9.9597 C.ar      1 UNK         0.0000 
  22346 C(3)       80.8914   47.4354    9.9633 C.ar      1 UNK         0.0000 
  22347 C(4)       79.8213   46.7208    9.4309 C.ar      1 UNK         0.0000 
  22348 C(5)       78.7257   47.4088    8.9107 C.ar      1 UNK         0.0000 
  22349 C(6)       78.7204   48.7963    8.9020 C.ar      1 UNK         0.0000 
  22350 C(7)       80.6935   51.8292    9.4070 C.2       1 UNK         0.0000 
  22351 C(8)       80.2526   53.2633    9.2860 C.3       1 UNK         0.0000 
  22352 H(1)       81.7249   49.3698   10.3744 H         1 UNK         0.0000 
  22353 H(2)       81.7422   46.9190   10.3903 H         1 UNK         0.0000 
  22354 H(3)       77.8826   46.8595    8.5104 H         1 UNK         0.0000 
  22355 H(4)       77.8698   49.3298    8.4961 H         1 UNK         0.0000 
  22356 H(5)       79.0126   44.9769    9.2841 H         1 UNK         0.0000 
  22357 H(6)       78.7768   51.2874    9.1910 H         1 UNK         0.0000 
  22358 H(7)       80.3309   53.7264   10.2352 H         1 UNK         0.0000 
  22359 H(8)       79.2559   53.3615    8.9420 H         1 UNK         0.0000 
  22360 H(9)       80.9331   53.7810    8.6612 H         1 UNK         0.0000 
  22361 O(1)       70.0659   57.5572   15.5017 O.3       1 UNK         0.0000 
  22362 O(2)       72.0638   58.7973    9.4577 O.2       1 UNK         0.0000 
  22363 N(1)       69.8826   58.8479   10.0886 N.am      1 UNK         0.0000 
  22364 C(1)       69.9821   58.4890   11.4515 C.ar      1 UNK         0.0000 
  22365 C(2)       71.0642   57.8031   12.0027 C.ar      1 UNK         0.0000 
  22366 C(3)       71.0713   57.4944   13.3599 C.ar      1 UNK         0.0000 
  22367 C(4)       70.0012   57.8570   14.1738 C.ar      1 UNK         0.0000 
  22368 C(5)       68.9056   58.5154   13.6167 C.ar      1 UNK         0.0000 
  22369 C(6)       68.9003   58.8283   12.2649 C.ar      1 UNK         0.0000 
  22370 C(7)       70.8734   59.0008    9.1951 C.2       1 UNK         0.0000 
  22371 C(8)       70.4325   59.4334    7.8224 C.3       1 UNK         0.0000 
  22372 H(1)       71.9048   57.5175   11.3824 H         1 UNK         0.0000 
  22373 H(2)       71.9221   56.9645   13.7701 H         1 UNK         0.0000 
  22374 H(3)       68.0624   58.7855   14.2404 H         1 UNK         0.0000 
  22375 H(4)       68.0497   59.3414   11.8334 H         1 UNK         0.0000 
  22376 H(5)       69.1925   57.6177   15.9075 H         1 UNK         0.0000 
  22377 H(6)       68.9566   59.0927    9.7711 H         1 UNK         0.0000 
  22378 H(7)       70.5108   58.6089    7.1624 H         1 UNK         0.0000 
  22379 H(8)       69.4357   59.7905    7.8021 H         1 UNK         0.0000 
  22380 H(9)       71.1130   60.1565    7.4544 H         1 UNK         0.0000 
  22381 O(1)       71.1987   54.1964   12.3169 O.3       1 UNK         0.0000 
  22382 O(2)       69.2008   48.0276   12.2011 O.2       1 UNK         0.0000 
  22383 N(1)       71.3820   48.6320   12.3888 N.am      1 UNK         0.0000 
  22384 C(1)       71.2825   50.0404   12.3376 C.ar      1 UNK         0.0000 
  22385 C(2)       70.2004   50.7287   11.7893 C.ar      1 UNK         0.0000 
  22386 C(3)       70.1933   52.1205   11.7858 C.ar      1 UNK         0.0000 
  22387 C(4)       71.2634   52.8351   12.3181 C.ar      1 UNK         0.0000 
  22388 C(5)       72.3590   52.1472   12.8383 C.ar      1 UNK         0.0000 
  22389 C(6)       72.3643   50.7596   12.8470 C.ar      1 UNK         0.0000 
  22390 C(7)       70.3912   47.7267   12.3420 C.2       1 UNK         0.0000 
  22391 C(8)       70.8321   46.2926   12.4630 C.3       1 UNK         0.0000 
  22392 H(1)       69.3598   50.1861   11.3746 H         1 UNK         0.0000 
  22393 H(2)       69.3425   52.6369   11.3587 H         1 UNK         0.0000 
  22394 H(3)       73.2021   52.6964   13.2386 H         1 UNK         0.0000 
  22395 H(4)       73.2149   50.2261   13.2530 H         1 UNK         0.0000 
  22396 H(5)       72.0721   54.5790   12.4649 H         1 UNK         0.0000 
  22397 H(6)       72.3080   48.2685   12.5580 H         1 UNK         0.0000 
  22398 H(7)       70.7538   45.8295   11.5138 H         1 UNK         0.0000 
  22399 H(8)       71.8288   46.1944   12.8070 H         1 UNK         0.0000 
  22400 H(9)       70.1516   45.7749   13.0878 H         1 UNK         0.0000 
  22401 O(1)       75.5326   62.4120   13.4097 O.3       1 UNK         0.0000 
  22402 O(2)       73.5347   61.1719   19.4537 O.2       1 UNK         0.0000 
  22403 N(1)       75.7159   61.1213   18.8228 N.am      1 UNK         0.0000 
  22404 C(1)       75.6164   61.4802   17.4599 C.ar      1 UNK         0.0000 
  22405 C(2)       74.5343   62.1661   16.9087 C.ar      1 UNK         0.0000 
  22406 C(3)       74.5272   62.4748   15.5516 C.ar      1 UNK         0.0000 
  22407 C(4)       75.5973   62.1122   14.7376 C.ar      1 UNK         0.0000 
  22408 C(5)       76.6929   61.4538   15.2947 C.ar      1 UNK         0.0000 
  22409 C(6)       76.6982   61.1409   16.6465 C.ar      1 UNK         0.0000 
  22410 C(7)       74.7251   60.9684   19.7163 C.2       1 UNK         0.0000 
  22411 C(8)       75.1660   60.5358   21.0890 C.3       1 UNK         0.0000 
  22412 H(1)       73.6937   62.4517   17.5290 H         1 UNK         0.0000 
  22413 H(2)       73.6764   63.0047   15.1413 H         1 UNK         0.0000 
  22414 H(3)       77.5360   61.1837   14.6710 H         1 UNK         0.0000 
  22415 H(4)       77.5488   60.6279   17.0780 H         1 UNK         0.0000 
  22416 H(5)       76.4060   62.3515   13.0039 H         1 UNK         0.0000 
  22417 H(6)       76.6418   60.8765   19.1403 H         1 UNK         0.0000 
  22418 H(7)       75.0877   61.3603   21.7490 H         1 UNK         0.0000 
  22419 H(8)       76.1627   60.1787   21.1093 H         1 UNK         0.0000 
  22420 H(9)       74.4855   59.8127   21.4570 H         1 UNK         0.0000 
  22421 O(1)       79.8860   51.0905   16.5945 O.3       1 UNK         0.0000 
  22422 O(2)       81.8839   57.2593   16.7103 O.2       1 UNK         0.0000 
  22423 N(1)       79.7027   56.6549   16.5226 N.am      1 UNK         0.0000 
  22424 C(1)       79.8022   55.2464   16.5738 C.ar      1 UNK         0.0000 
  22425 C(2)       80.8843   54.5582   17.1221 C.ar      1 UNK         0.0000 
  22426 C(3)       80.8914   53.1664   17.1257 C.ar      1 UNK         0.0000 
  22427 C(4)       79.8213   52.4518   16.5933 C.ar      1 UNK         0.0000 
  22428 C(5)       78.7257   53.1397   16.0731 C.ar      1 UNK         0.0000 
  22429 C(6)       78.7204   54.5273   16.0644 C.ar      1 UNK         0.0000 
  22430 C(7)       80.6935   57.5602   16.5694 C.2       1 UNK         0.0000 
  22431 C(8)       80.2526   58.9943   16.4484 C.3       1 UNK         0.0000 
  22432 H(1)       81.7249   55.1008   17.5368 H         1 UNK         0.0000 
  22433 H(2)       81.7422   52.6499   17.5527 H         1 UNK         0.0000 
  22434 H(3)       77.8826   52.5905   15.6728 H         1 UNK         0.0000 
  22435 H(4)       77.8698   55.0608   15.6585 H         1 UNK         0.0000 
  22436 H(5)       79.0126   50.7079   16.4465 H         1 UNK         0.0000 
  22437 H(6)       78.7768   57.0183   16.3534 H         1 UNK         0.0000 
  22438 H(7)       80.3309   59.4574   17.3976 H         1 UNK         0.0000 
  22439 H(8)       79.2559   59.0924   16.1044 H         1 UNK         0.0000 
  22440 H(9)       80.9331   59.5120   15.8236 H         1 UNK         0.0000 
  22441 O(1)       75.5522   48.6059   22.6641 O.3       1 UNK         0.0000 
  22442 O(2)       77.5500   49.8459   16.6201 O.2       1 UNK         0.0000 
  22443 N(1)       75.3688   49.8966   17.2510 N.am      1 UNK         0.0000 
  22444 C(1)       75.4683   49.5377   18.6139 C.ar      1 UNK         0.0000 
  22445 C(2)       76.5504   48.8518   19.1651 C.ar      1 UNK         0.0000 
  22446 C(3)       76.5575   48.5430   20.5223 C.ar      1 UNK         0.0000 
  22447 C(4)       75.4874   48.9057   21.3362 C.ar      1 UNK         0.0000 
  22448 C(5)       74.3918   49.5641   20.7791 C.ar      1 UNK         0.0000 
  22449 C(6)       74.3865   49.8769   19.4273 C.ar      1 UNK         0.0000 
  22450 C(7)       76.3596   50.0494   16.3575 C.2       1 UNK         0.0000 
  22451 C(8)       75.9187   50.4820   14.9848 C.3       1 UNK         0.0000 
  22452 H(1)       77.3910   48.5661   18.5448 H         1 UNK         0.0000 
  22453 H(2)       77.4083   48.0131   20.9325 H         1 UNK         0.0000 
  22454 H(3)       73.5487   49.8341   21.4028 H         1 UNK         0.0000 
  22455 H(4)       73.5359   50.3900   18.9958 H         1 UNK         0.0000 
  22456 H(5)       74.6787   48.6664   23.0699 H         1 UNK         0.0000 
  22457 H(6)       74.4429   50.1413   16.9335 H         1 UNK         0.0000 
  22458 H(7)       75.9970   49.6576   14.3248 H         1 UNK         0.0000 
  22459 H(8)       74.9220   50.8392   14.9645 H         1 UNK         0.0000 
  22460 H(9)       76.5992   51.2051   14.6168 H         1 UNK         0.0000 
  22461 O(1)       78.2757   59.9274   19.4793 O.3       1 UNK         0.0000 
  22462 O(2)       76.2778   53.7586   19.3635 O.2       1 UNK         0.0000 
  22463 N(1)       78.4590   54.3630   19.5512 N.am      1 UNK         0.0000 
  22464 C(1)       78.3595   55.7714   19.5000 C.ar      1 UNK         0.0000 
  22465 C(2)       77.2774   56.4596   18.9517 C.ar      1 UNK         0.0000 
  22466 C(3)       77.2703   57.8514   18.9482 C.ar      1 UNK         0.0000 
  22467 C(4)       78.3404   58.5660   19.4805 C.ar      1 UNK         0.0000 
  22468 C(5)       79.4360   57.8781   20.0007 C.ar      1 UNK         0.0000 
  22469 C(6)       79.4413   56.4906   20.0094 C.ar      1 UNK         0.0000 
  22470 C(7)       77.4682   53.4577   19.5044 C.2       1 UNK         0.0000 
  22471 C(8)       77.9091   52.0235   19.6254 C.3       1 UNK         0.0000 
  22472 H(1)       76.4368   55.9171   18.5370 H         1 UNK         0.0000 
  22473 H(2)       76.4195   58.3679   18.5211 H         1 UNK         0.0000 
  22474 H(3)       80.2791   58.4274   20.4010 H         1 UNK         0.0000 
  22475 H(4)       80.2919   55.9571   20.4154 H         1 UNK         0.0000 
  22476 H(5)       79.1491   60.3100   19.6273 H         1 UNK         0.0000 
  22477 H(6)       79.3850   53.9995   19.7204 H         1 UNK         0.0000 
  22478 H(7)       77.8308   51.5604   18.6762 H         1 UNK         0.0000 
  22479 H(8)       78.9058   51.9254   19.9694 H         1 UNK         0.0000 
  22480 H(9)       77.2286   51.5059   20.2502 H         1 UNK         0.0000 
  22481 O(1)       73.9418   53.4606   20.5721 O.3       1 UNK         0.0000 
  22482 O(2)       71.9440   52.2205   26.6161 O.2       1 UNK         0.0000 
  22483 N(1)       74.1251   52.1699   25.9852 N.am      1 UNK         0.0000 
  22484 C(1)       74.0256   52.5288   24.6223 C.ar      1 UNK         0.0000 
  22485 C(2)       72.9435   53.2147   24.0711 C.ar      1 UNK         0.0000 
  22486 C(3)       72.9365   53.5235   22.7140 C.ar      1 UNK         0.0000 
  22487 C(4)       74.0065   53.1608   21.9000 C.ar      1 UNK         0.0000 
  22488 C(5)       75.1021   52.5024   22.4571 C.ar      1 UNK         0.0000 
  22489 C(6)       75.1074   52.1896   23.8089 C.ar      1 UNK         0.0000 
  22490 C(7)       73.1343   52.0171   26.8787 C.2       1 UNK         0.0000 
  22491 C(8)       73.5752   51.5844   28.2514 C.3       1 UNK         0.0000 
  22492 H(1)       72.1030   53.5004   24.6914 H         1 UNK         0.0000 
  22493 H(2)       72.0856   54.0534   22.3037 H         1 UNK         0.0000 
  22494 H(3)       75.9453   52.2323   21.8334 H         1 UNK         0.0000 
  22495 H(4)       75.9580   51.6765   24.2404 H         1 UNK         0.0000 
  22496 H(5)       74.8152   53.4001   20.1663 H         1 UNK         0.0000 
  22497 H(6)       75.0511   51.9252   26.3027 H         1 UNK         0.0000 
  22498 H(7)       73.4969   52.4089   28.9114 H         1 UNK         0.0000 
  22499 H(8)       74.5720   51.2273   28.2717 H         1 UNK         0.0000 
  22500 H(9)       72.8947   50.8613   28.6194 H         1 UNK         0.0000 
  22501 O(1)       72.8090   56.8215   23.7569 O.3       1 UNK         0.0000 
  22502 O(2)       74.8069   62.9902   23.8727 O.2       1 UNK         0.0000 
  22503 N(1)       72.6257   62.3858   23.6850 N.am      1 UNK         0.0000 
  22504 C(1)       72.7252   60.9774   23.7362 C.ar      1 UNK         0.0000 
  22505 C(2)       73.8073   60.2892   24.2845 C.ar      1 UNK         0.0000 
  22506 C(3)       73.8144   58.8974   24.2881 C.ar      1 UNK         0.0000 
  22507 C(4)       72.7443   58.1828   23.7557 C.ar      1 UNK         0.0000 
  22508 C(5)       71.6487   58.8707   23.2355 C.ar      1 UNK         0.0000 
  22509 C(6)       71.6434   60.2582   23.2268 C.ar      1 UNK         0.0000 
  22510 C(7)       73.6165   63.2911   23.7318 C.2       1 UNK         0.0000 
  22511 C(8)       73.1756   64.7253   23.6108 C.3       1 UNK         0.0000 
  22512 H(1)       74.6479   60.8317   24.6992 H         1 UNK         0.0000 
  22513 H(2)       74.6652   58.3809   24.7151 H         1 UNK         0.0000 
  22514 H(3)       70.8056   58.3214   22.8352 H         1 UNK         0.0000 
  22515 H(4)       70.7928   60.7917   22.8209 H         1 UNK         0.0000 
  22516 H(5)       71.9356   56.4389   23.6089 H         1 UNK         0.0000 
  22517 H(6)       71.6997   62.7493   23.5158 H         1 UNK         0.0000 
  22518 H(7)       73.2539   65.1884   24.5600 H         1 UNK         0.0000 
  22519 H(8)       72.1789   64.8234   23.2668 H         1 UNK         0.0000 
  22520 H(9)       73.8561   65.2429   22.9860 H         1 UNK         0.0000 
  22521 O(1)       77.1429   51.8263    8.3393 O.3       1 UNK         0.0000 
  22522 O(2)       79.1408   53.0663    2.2953 O.2       1 UNK         0.0000 
  22523 N(1)       76.9596   53.1170    2.9262 N.am      1 UNK         0.0000 
  22524 C(1)       77.0591   52.7581    4.2891 C.ar      1 UNK         0.0000 
  22525 C(2)       78.1412   52.0722    4.8403 C.ar      1 UNK         0.0000 
  22526 C(3)       78.1483   51.7634    6.1975 C.ar      1 UNK         0.0000 
  22527 C(4)       77.0782   52.1261    7.0114 C.ar      1 UNK         0.0000 
  22528 C(5)       75.9826   52.7845    6.4543 C.ar      1 UNK         0.0000 
  22529 C(6)       75.9773   53.0973    5.1025 C.ar      1 UNK         0.0000 
  22530 C(7)       77.9504   53.2698    2.0327 C.2       1 UNK         0.0000 
  22531 C(8)       77.5095   53.7024    0.6600 C.3       1 UNK         0.0000 
  22532 H(1)       78.9818   51.7865    4.2200 H         1 UNK         0.0000 
  22533 H(2)       78.9991   51.2335    6.6077 H         1 UNK         0.0000 
  22534 H(3)       75.1394   53.0545    7.0780 H         1 UNK         0.0000 
  22535 H(4)       75.1267   53.6104    4.6710 H         1 UNK         0.0000 
  22536 H(5)       76.2695   51.8868    8.7451 H         1 UNK         0.0000 
  22537 H(6)       76.0336   53.3617    2.6087 H         1 UNK         0.0000 
  22538 H(7)       77.5878   52.8780    0.0000 H         1 UNK         0.0000 
  22539 H(8)       76.5127   54.0596    0.6397 H         1 UNK         0.0000 
  22540 H(9)       78.1900   54.4255    0.2920 H         1 UNK         0.0000 
  22541 O(1)       79.8664   63.1478    5.1545 O.3       1 UNK         0.0000 
  22542 O(2)       77.8686   56.9790    5.0387 O.2       1 UNK         0.0000 
  22543 N(1)       80.0498   57.5834    5.2264 N.am      1 UNK         0.0000 
  22544 C(1)       79.9503   58.9918    5.1752 C.ar      1 UNK         0.0000 
  22545 C(2)       78.8682   59.6800    4.6269 C.ar      1 UNK         0.0000 
  22546 C(3)       78.8611   61.0718    4.6234 C.ar      1 UNK         0.0000 
  22547 C(4)       79.9312   61.7864    5.1557 C.ar      1 UNK         0.0000 
  22548 C(5)       81.0268   61.0985    5.6759 C.ar      1 UNK         0.0000 
  22549 C(6)       81.0321   59.7110    5.6846 C.ar      1 UNK         0.0000 
  22550 C(7)       79.0590   56.6781    5.1796 C.2       1 UNK         0.0000 
  22551 C(8)       79.4999   55.2439    5.3006 C.3       1 UNK         0.0000 
  22552 H(1)       78.0276   59.1375    4.2122 H         1 UNK         0.0000 
  22553 H(2)       78.0103   61.5883    4.1963 H         1 UNK         0.0000 
  22554 H(3)       81.8699   61.6478    6.0762 H         1 UNK         0.0000 
  22555 H(4)       81.8827   59.1775    6.0906 H         1 UNK         0.0000 
  22556 H(5)       80.7399   63.5304    5.3025 H         1 UNK         0.0000 
  22557 H(6)       80.9757   57.2199    5.3956 H         1 UNK         0.0000 
  22558 H(7)       79.4216   54.7808    4.3514 H         1 UNK         0.0000 
  22559 H(8)       80.4966   55.1458    5.6446 H         1 UNK         0.0000 
  22560 H(9)       78.8194   54.7263    5.9254 H         1 UNK         0.0000 
  22561 O(1)       77.1233   71.3634    6.2473 O.3       1 UNK         0.0000 
  22562 O(2)       75.1255   70.1233   12.2913 O.2       1 UNK         0.0000 
  22563 N(1)       77.3067   70.0726   11.6604 N.am      1 UNK         0.0000 
  22564 C(1)       77.2072   70.4316   10.2975 C.ar      1 UNK         0.0000 
  22565 C(2)       76.1251   71.1174    9.7463 C.ar      1 UNK         0.0000 
  22566 C(3)       76.1180   71.4262    8.3892 C.ar      1 UNK         0.0000 
  22567 C(4)       77.1880   71.0635    7.5752 C.ar      1 UNK         0.0000 
  22568 C(5)       78.2837   70.4052    8.1323 C.ar      1 UNK         0.0000 
  22569 C(6)       78.2890   70.0923    9.4841 C.ar      1 UNK         0.0000 
  22570 C(7)       76.3159   69.9198   12.5539 C.2       1 UNK         0.0000 
  22571 C(8)       76.7567   69.4872   13.9266 C.3       1 UNK         0.0000 
  22572 H(1)       75.2845   71.4031   10.3666 H         1 UNK         0.0000 
  22573 H(2)       75.2672   71.9561    7.9789 H         1 UNK         0.0000 
  22574 H(3)       79.1268   70.1351    7.5086 H         1 UNK         0.0000 
  22575 H(4)       79.1396   69.5792    9.9156 H         1 UNK         0.0000 
  22576 H(5)       77.9968   71.3028    5.8415 H         1 UNK         0.0000 
  22577 H(6)       78.2326   69.8279   11.9779 H         1 UNK         0.0000 
  22578 H(7)       76.6785   70.3116   14.5866 H         1 UNK         0.0000 
  22579 H(8)       77.7535   69.1300   13.9469 H         1 UNK         0.0000 
  22580 H(9)       76.0763   68.7641   14.2946 H         1 UNK         0.0000 
  22581 O(1)       81.4768   60.0419    9.4321 O.3       1 UNK         0.0000 
  22582 O(2)       83.4746   66.2106    9.5479 O.2       1 UNK         0.0000 
  22583 N(1)       81.2935   65.6062    9.3602 N.am      1 UNK         0.0000 
  22584 C(1)       81.3930   64.1978    9.4114 C.ar      1 UNK         0.0000 
  22585 C(2)       82.4751   63.5096    9.9597 C.ar      1 UNK         0.0000 
  22586 C(3)       82.4821   62.1178    9.9633 C.ar      1 UNK         0.0000 
  22587 C(4)       81.4121   61.4032    9.4309 C.ar      1 UNK         0.0000 
  22588 C(5)       80.3165   62.0911    8.9107 C.ar      1 UNK         0.0000 
  22589 C(6)       80.3112   63.4786    8.9020 C.ar      1 UNK         0.0000 
  22590 C(7)       82.2843   66.5115    9.4070 C.2       1 UNK         0.0000 
  22591 C(8)       81.8434   67.9457    9.2860 C.3       1 UNK         0.0000 
  22592 H(1)       83.3156   64.0521   10.3744 H         1 UNK         0.0000 
  22593 H(2)       83.3330   61.6013   10.3903 H         1 UNK         0.0000 
  22594 H(3)       79.4733   61.5418    8.5104 H         1 UNK         0.0000 
  22595 H(4)       79.4606   64.0121    8.4961 H         1 UNK         0.0000 
  22596 H(5)       80.6034   59.6593    9.2841 H         1 UNK         0.0000 
  22597 H(6)       80.3675   65.9697    9.1910 H         1 UNK         0.0000 
  22598 H(7)       81.9217   68.4088   10.2352 H         1 UNK         0.0000 
  22599 H(8)       80.8466   68.0438    8.9420 H         1 UNK         0.0000 
  22600 H(9)       82.5239   68.4633    8.6612 H         1 UNK         0.0000 
  22601 O(1)       71.6567   72.2396   15.5017 O.3       1 UNK         0.0000 
  22602 O(2)       73.6545   73.4796    9.4577 O.2       1 UNK         0.0000 
  22603 N(1)       71.4734   73.5303   10.0886 N.am      1 UNK         0.0000 
  22604 C(1)       71.5728   73.1714   11.4515 C.ar      1 UNK         0.0000 
  22605 C(2)       72.6550   72.4855   12.0027 C.ar      1 UNK         0.0000 
  22606 C(3)       72.6620   72.1767   13.3599 C.ar      1 UNK         0.0000 
  22607 C(4)       71.5920   72.5394   14.1738 C.ar      1 UNK         0.0000 
  22608 C(5)       70.4964   73.1977   13.6167 C.ar      1 UNK         0.0000 
  22609 C(6)       70.4911   73.5106   12.2649 C.ar      1 UNK         0.0000 
  22610 C(7)       72.4642   73.6831    9.1951 C.2       1 UNK         0.0000 
  22611 C(8)       72.0233   74.1157    7.8224 C.3       1 UNK         0.0000 
  22612 H(1)       73.4955   72.1998   11.3824 H         1 UNK         0.0000 
  22613 H(2)       73.5128   71.6468   13.7701 H         1 UNK         0.0000 
  22614 H(3)       69.6532   73.4678   14.2404 H         1 UNK         0.0000 
  22615 H(4)       69.6405   74.0237   11.8334 H         1 UNK         0.0000 
  22616 H(5)       70.7833   72.3001   15.9075 H         1 UNK         0.0000 
  22617 H(6)       70.5474   73.7750    9.7711 H         1 UNK         0.0000 
  22618 H(7)       72.1016   73.2913    7.1624 H         1 UNK         0.0000 
  22619 H(8)       71.0265   74.4729    7.8021 H         1 UNK         0.0000 
  22620 H(9)       72.7038   74.8388    7.4544 H         1 UNK         0.0000 
  22621 O(1)       72.7894   68.8787   12.3169 O.3       1 UNK         0.0000 
  22622 O(2)       70.7916   62.7099   12.2011 O.2       1 UNK         0.0000 
  22623 N(1)       72.9728   63.3143   12.3888 N.am      1 UNK         0.0000 
  22624 C(1)       72.8733   64.7228   12.3376 C.ar      1 UNK         0.0000 
  22625 C(2)       71.7912   65.4110   11.7893 C.ar      1 UNK         0.0000 
  22626 C(3)       71.7841   66.8028   11.7858 C.ar      1 UNK         0.0000 
  22627 C(4)       72.8542   67.5174   12.3181 C.ar      1 UNK         0.0000 
  22628 C(5)       73.9498   66.8295   12.8383 C.ar      1 UNK         0.0000 
  22629 C(6)       73.9551   65.4419   12.8470 C.ar      1 UNK         0.0000 
  22630 C(7)       71.9820   62.4090   12.3420 C.2       1 UNK         0.0000 
  22631 C(8)       72.4229   60.9749   12.4630 C.3       1 UNK         0.0000 
  22632 H(1)       70.9506   64.8685   11.3746 H         1 UNK         0.0000 
  22633 H(2)       70.9333   67.3193   11.3587 H         1 UNK         0.0000 
  22634 H(3)       74.7929   67.3787   13.2386 H         1 UNK         0.0000 
  22635 H(4)       74.8057   64.9084   13.2530 H         1 UNK         0.0000 
  22636 H(5)       73.6629   69.2613   12.4649 H         1 UNK         0.0000 
  22637 H(6)       73.8987   62.9509   12.5580 H         1 UNK         0.0000 
  22638 H(7)       72.3446   60.5118   11.5138 H         1 UNK         0.0000 
  22639 H(8)       73.4196   60.8768   12.8070 H         1 UNK         0.0000 
  22640 H(9)       71.7424   60.4572   13.0878 H         1 UNK         0.0000 
  22641 O(1)       77.1233   77.0943   13.4097 O.3       1 UNK         0.0000 
  22642 O(2)       75.1255   75.8542   19.4537 O.2       1 UNK         0.0000 
  22643 N(1)       77.3067   75.8036   18.8228 N.am      1 UNK         0.0000 
  22644 C(1)       77.2072   76.1625   17.4599 C.ar      1 UNK         0.0000 
  22645 C(2)       76.1251   76.8484   16.9087 C.ar      1 UNK         0.0000 
  22646 C(3)       76.1180   77.1572   15.5516 C.ar      1 UNK         0.0000 
  22647 C(4)       77.1880   76.7945   14.7376 C.ar      1 UNK         0.0000 
  22648 C(5)       78.2837   76.1361   15.2947 C.ar      1 UNK         0.0000 
  22649 C(6)       78.2890   75.8232   16.6465 C.ar      1 UNK         0.0000 
  22650 C(7)       76.3159   75.6508   19.7163 C.2       1 UNK         0.0000 
  22651 C(8)       76.7567   75.2181   21.0890 C.3       1 UNK         0.0000 
  22652 H(1)       75.2845   77.1341   17.5290 H         1 UNK         0.0000 
  22653 H(2)       75.2672   77.6871   15.1413 H         1 UNK         0.0000 
  22654 H(3)       79.1268   75.8660   14.6710 H         1 UNK         0.0000 
  22655 H(4)       79.1396   75.3102   17.0780 H         1 UNK         0.0000 
  22656 H(5)       77.9968   77.0338   13.0039 H         1 UNK         0.0000 
  22657 H(6)       78.2326   75.5589   19.1403 H         1 UNK         0.0000 
  22658 H(7)       76.6785   76.0426   21.7490 H         1 UNK         0.0000 
  22659 H(8)       77.7535   74.8610   21.1093 H         1 UNK         0.0000 
  22660 H(9)       76.0763   74.4950   21.4570 H         1 UNK         0.0000 
  22661 O(1)       81.4768   65.7728   16.5945 O.3       1 UNK         0.0000 
  22662 O(2)       83.4746   71.9416   16.7103 O.2       1 UNK         0.0000 
  22663 N(1)       81.2935   71.3372   16.5226 N.am      1 UNK         0.0000 
  22664 C(1)       81.3930   69.9288   16.5738 C.ar      1 UNK         0.0000 
  22665 C(2)       82.4751   69.2405   17.1221 C.ar      1 UNK         0.0000 
  22666 C(3)       82.4821   67.8487   17.1257 C.ar      1 UNK         0.0000 
  22667 C(4)       81.4121   67.1341   16.5933 C.ar      1 UNK         0.0000 
  22668 C(5)       80.3165   67.8221   16.0731 C.ar      1 UNK         0.0000 
  22669 C(6)       80.3112   69.2096   16.0644 C.ar      1 UNK         0.0000 
  22670 C(7)       82.2843   72.2425   16.5694 C.2       1 UNK         0.0000 
  22671 C(8)       81.8434   73.6766   16.4484 C.3       1 UNK         0.0000 
  22672 H(1)       83.3156   69.7831   17.5368 H         1 UNK         0.0000 
  22673 H(2)       83.3330   67.3323   17.5527 H         1 UNK         0.0000 
  22674 H(3)       79.4733   67.2728   15.6728 H         1 UNK         0.0000 
  22675 H(4)       79.4606   69.7431   15.6585 H         1 UNK         0.0000 
  22676 H(5)       80.6034   65.3902   16.4465 H         1 UNK         0.0000 
  22677 H(6)       80.3675   71.7007   16.3534 H         1 UNK         0.0000 
  22678 H(7)       81.9217   74.1397   17.3976 H         1 UNK         0.0000 
  22679 H(8)       80.8466   73.7748   16.1044 H         1 UNK         0.0000 
  22680 H(9)       82.5239   74.1943   15.8236 H         1 UNK         0.0000 
  22681 O(1)       77.1429   63.2882   22.6641 O.3       1 UNK         0.0000 
  22682 O(2)       79.1408   64.5283   16.6201 O.2       1 UNK         0.0000 
  22683 N(1)       76.9596   64.5789   17.2510 N.am      1 UNK         0.0000 
  22684 C(1)       77.0591   64.2200   18.6139 C.ar      1 UNK         0.0000 
  22685 C(2)       78.1412   63.5341   19.1651 C.ar      1 UNK         0.0000 
  22686 C(3)       78.1483   63.2253   20.5223 C.ar      1 UNK         0.0000 
  22687 C(4)       77.0782   63.5880   21.3362 C.ar      1 UNK         0.0000 
  22688 C(5)       75.9826   64.2464   20.7791 C.ar      1 UNK         0.0000 
  22689 C(6)       75.9773   64.5593   19.4273 C.ar      1 UNK         0.0000 
  22690 C(7)       77.9504   64.7317   16.3575 C.2       1 UNK         0.0000 
  22691 C(8)       77.5095   65.1644   14.9848 C.3       1 UNK         0.0000 
  22692 H(1)       78.9818   63.2484   18.5448 H         1 UNK         0.0000 
  22693 H(2)       78.9991   62.6954   20.9325 H         1 UNK         0.0000 
  22694 H(3)       75.1394   64.5165   21.4028 H         1 UNK         0.0000 
  22695 H(4)       75.1267   65.0723   18.9958 H         1 UNK         0.0000 
  22696 H(5)       76.2695   63.3487   23.0699 H         1 UNK         0.0000 
  22697 H(6)       76.0336   64.8236   16.9335 H         1 UNK         0.0000 
  22698 H(7)       77.5878   64.3399   14.3248 H         1 UNK         0.0000 
  22699 H(8)       76.5127   65.5215   14.9645 H         1 UNK         0.0000 
  22700 H(9)       78.1900   65.8875   14.6168 H         1 UNK         0.0000 
  22701 O(1)       79.8664   74.6097   19.4793 O.3       1 UNK         0.0000 
  22702 O(2)       77.8686   68.4409   19.3635 O.2       1 UNK         0.0000 
  22703 N(1)       80.0498   69.0453   19.5512 N.am      1 UNK         0.0000 
  22704 C(1)       79.9503   70.4537   19.5000 C.ar      1 UNK         0.0000 
  22705 C(2)       78.8682   71.1420   18.9517 C.ar      1 UNK         0.0000 
  22706 C(3)       78.8611   72.5338   18.9482 C.ar      1 UNK         0.0000 
  22707 C(4)       79.9312   73.2484   19.4805 C.ar      1 UNK         0.0000 
  22708 C(5)       81.0268   72.5605   20.0007 C.ar      1 UNK         0.0000 
  22709 C(6)       81.0321   71.1729   20.0094 C.ar      1 UNK         0.0000 
  22710 C(7)       79.0590   68.1400   19.5044 C.2       1 UNK         0.0000 
  22711 C(8)       79.4999   66.7059   19.6254 C.3       1 UNK         0.0000 
  22712 H(1)       78.0276   70.5994   18.5370 H         1 UNK         0.0000 
  22713 H(2)       78.0103   73.0502   18.5211 H         1 UNK         0.0000 
  22714 H(3)       81.8699   73.1097   20.4010 H         1 UNK         0.0000 
  22715 H(4)       81.8827   70.6394   20.4154 H         1 UNK         0.0000 
  22716 H(5)       80.7399   74.9923   19.6273 H         1 UNK         0.0000 
  22717 H(6)       80.9757   68.6818   19.7204 H         1 UNK         0.0000 
  22718 H(7)       79.4216   66.2428   18.6762 H         1 UNK         0.0000 
  22719 H(8)       80.4966   66.6077   19.9694 H         1 UNK         0.0000 
  22720 H(9)       78.8194   66.1882   20.2502 H         1 UNK         0.0000 
  22721 O(1)       75.5326   68.1430   20.5721 O.3       1 UNK         0.0000 
  22722 O(2)       73.5347   66.9029   26.6161 O.2       1 UNK         0.0000 
  22723 N(1)       75.7159   66.8522   25.9852 N.am      1 UNK         0.0000 
  22724 C(1)       75.6164   67.2112   24.6223 C.ar      1 UNK         0.0000 
  22725 C(2)       74.5343   67.8970   24.0711 C.ar      1 UNK         0.0000 
  22726 C(3)       74.5272   68.2058   22.7140 C.ar      1 UNK         0.0000 
  22727 C(4)       75.5973   67.8431   21.9000 C.ar      1 UNK         0.0000 
  22728 C(5)       76.6929   67.1848   22.4571 C.ar      1 UNK         0.0000 
  22729 C(6)       76.6982   66.8719   23.8089 C.ar      1 UNK         0.0000 
  22730 C(7)       74.7251   66.6994   26.8787 C.2       1 UNK         0.0000 
  22731 C(8)       75.1660   66.2668   28.2514 C.3       1 UNK         0.0000 
  22732 H(1)       73.6937   68.1827   24.6914 H         1 UNK         0.0000 
  22733 H(2)       73.6764   68.7357   22.3037 H         1 UNK         0.0000 
  22734 H(3)       77.5360   66.9147   21.8334 H         1 UNK         0.0000 
  22735 H(4)       77.5488   66.3588   24.2404 H         1 UNK         0.0000 
  22736 H(5)       76.4060   68.0824   20.1663 H         1 UNK         0.0000 
  22737 H(6)       76.6418   66.6075   26.3027 H         1 UNK         0.0000 
  22738 H(7)       75.0877   67.0912   28.9114 H         1 UNK         0.0000 
  22739 H(8)       76.1627   65.9096   28.2717 H         1 UNK         0.0000 
  22740 H(9)       74.4855   65.5437   28.6194 H         1 UNK         0.0000 
  22741 O(1)       74.3998   71.5038   23.7569 O.3       1 UNK         0.0000 
  22742 O(2)       76.3976   77.6726   23.8727 O.2       1 UNK         0.0000 
  22743 N(1)       74.2165   77.0682   23.6850 N.am      1 UNK         0.0000 
  22744 C(1)       74.3160   75.6597   23.7362 C.ar      1 UNK         0.0000 
  22745 C(2)       75.3981   74.9715   24.2845 C.ar      1 UNK         0.0000 
  22746 C(3)       75.4051   73.5797   24.2881 C.ar      1 UNK         0.0000 
  22747 C(4)       74.3351   72.8651   23.7557 C.ar      1 UNK         0.0000 
  22748 C(5)       73.2395   73.5530   23.2355 C.ar      1 UNK         0.0000 
  22749 C(6)       73.2342   74.9406   23.2268 C.ar      1 UNK         0.0000 
  22750 C(7)       75.2073   77.9735   23.7318 C.2       1 UNK         0.0000 
  22751 C(8)       74.7664   79.4076   23.6108 C.3       1 UNK         0.0000 
  22752 H(1)       76.2386   75.5140   24.6992 H         1 UNK         0.0000 
  22753 H(2)       76.2560   73.0632   24.7151 H         1 UNK         0.0000 
  22754 H(3)       72.3963   73.0038   22.8352 H         1 UNK         0.0000 
  22755 H(4)       72.3836   75.4741   22.8209 H         1 UNK         0.0000 
  22756 H(5)       73.5264   71.1212   23.6089 H         1 UNK         0.0000 
  22757 H(6)       73.2905   77.4316   23.5158 H         1 UNK         0.0000 
  22758 H(7)       74.8447   79.8707   24.5600 H         1 UNK         0.0000 
  22759 H(8)       73.7696   79.5057   23.2668 H         1 UNK         0.0000 
  22760 H(9)       75.4469   79.9253   22.9860 H         1 UNK         0.0000 
  22761 O(1)       78.7337   66.5086    8.3393 O.3       1 UNK         0.0000 
  22762 O(2)       80.7315   67.7487    2.2953 O.2       1 UNK         0.0000 
  22763 N(1)       78.5504   67.7993    2.9262 N.am      1 UNK         0.0000 
  22764 C(1)       78.6498   67.4404    4.2891 C.ar      1 UNK         0.0000 
  22765 C(2)       79.7320   66.7545    4.8403 C.ar      1 UNK         0.0000 
  22766 C(3)       79.7390   66.4457    6.1975 C.ar      1 UNK         0.0000 
  22767 C(4)       78.6690   66.8084    7.0114 C.ar      1 UNK         0.0000 
  22768 C(5)       77.5734   67.4668    6.4543 C.ar      1 UNK         0.0000 
  22769 C(6)       77.5681   67.7797    5.1025 C.ar      1 UNK         0.0000 
  22770 C(7)       79.5412   67.9521    2.0327 C.2       1 UNK         0.0000 
  22771 C(8)       79.1003   68.3848    0.6600 C.3       1 UNK         0.0000 
  22772 H(1)       80.5725   66.4688    4.2200 H         1 UNK         0.0000 
  22773 H(2)       80.5898   65.9158    6.6077 H         1 UNK         0.0000 
  22774 H(3)       76.7302   67.7369    7.0780 H         1 UNK         0.0000 
  22775 H(4)       76.7175   68.2927    4.6710 H         1 UNK         0.0000 
  22776 H(5)       77.8603   66.5691    8.7451 H         1 UNK         0.0000 
  22777 H(6)       77.6244   68.0440    2.6087 H         1 UNK         0.0000 
  22778 H(7)       79.1786   67.5603    0.0000 H         1 UNK         0.0000 
  22779 H(8)       78.1035   68.7419    0.6397 H         1 UNK         0.0000 
  22780 H(9)       79.7808   69.1079    0.2920 H         1 UNK         0.0000 
  22781 O(1)       81.4572   77.8301    5.1545 O.3       1 UNK         0.0000 
  22782 O(2)       79.4594   71.6613    5.0387 O.2       1 UNK         0.0000 
  22783 N(1)       81.6406   72.2657    5.2264 N.am      1 UNK         0.0000 
  22784 C(1)       81.5411   73.6741    5.1752 C.ar      1 UNK         0.0000 
  22785 C(2)       80.4589   74.3624    4.6269 C.ar      1 UNK         0.0000 
  22786 C(3)       80.4519   75.7542    4.6234 C.ar      1 UNK         0.0000 
  22787 C(4)       81.5219   76.4688    5.1557 C.ar      1 UNK         0.0000 
  22788 C(5)       82.6175   75.7809    5.6759 C.ar      1 UNK         0.0000 
  22789 C(6)       82.6229   74.3933    5.6846 C.ar      1 UNK         0.0000 
  22790 C(7)       80.6498   71.3604    5.1796 C.2       1 UNK         0.0000 
  22791 C(8)       81.0906   69.9263    5.3006 C.3       1 UNK         0.0000 
  22792 H(1)       79.6184   73.8198    4.2122 H         1 UNK         0.0000 
  22793 H(2)       79.6011   76.2706    4.1963 H         1 UNK         0.0000 
  22794 H(3)       83.4607   76.3301    6.0762 H         1 UNK         0.0000 
  22795 H(4)       83.4735   73.8598    6.0906 H         1 UNK         0.0000 
  22796 H(5)       82.3307   78.2127    5.3025 H         1 UNK         0.0000 
  22797 H(6)       82.5665   71.9022    5.3956 H         1 UNK         0.0000 
  22798 H(7)       81.0124   69.4632    4.3514 H         1 UNK         0.0000 
  22799 H(8)       82.0874   69.8281    5.6446 H         1 UNK         0.0000 
  22800 H(9)       80.4102   69.4086    5.9254 H         1 UNK         0.0000 
  22801 O(1)       78.7141   86.0457    6.2473 O.3       1 UNK         0.0000 
  22802 O(2)       76.7163   84.8056   12.2913 O.2       1 UNK         0.0000 
  22803 N(1)       78.8974   84.7550   11.6604 N.am      1 UNK         0.0000 
  22804 C(1)       78.7980   85.1139   10.2975 C.ar      1 UNK         0.0000 
  22805 C(2)       77.7158   85.7998    9.7463 C.ar      1 UNK         0.0000 
  22806 C(3)       77.7088   86.1085    8.3892 C.ar      1 UNK         0.0000 
  22807 C(4)       78.7788   85.7459    7.5752 C.ar      1 UNK         0.0000 
  22808 C(5)       79.8744   85.0875    8.1323 C.ar      1 UNK         0.0000 
  22809 C(6)       79.8797   84.7746    9.4841 C.ar      1 UNK         0.0000 
  22810 C(7)       77.9067   84.6021   12.5539 C.2       1 UNK         0.0000 
  22811 C(8)       78.3475   84.1695   13.9266 C.3       1 UNK         0.0000 
  22812 H(1)       76.8753   86.0854   10.3666 H         1 UNK         0.0000 
  22813 H(2)       76.8580   86.6384    7.9789 H         1 UNK         0.0000 
  22814 H(3)       80.7176   84.8174    7.5086 H         1 UNK         0.0000 
  22815 H(4)       80.7304   84.2615    9.9156 H         1 UNK         0.0000 
  22816 H(5)       79.5876   85.9852    5.8415 H         1 UNK         0.0000 
  22817 H(6)       79.8234   84.5102   11.9779 H         1 UNK         0.0000 
  22818 H(7)       78.2693   84.9940   14.5866 H         1 UNK         0.0000 
  22819 H(8)       79.3443   83.8124   13.9469 H         1 UNK         0.0000 
  22820 H(9)       77.6670   83.4464   14.2946 H         1 UNK         0.0000 
  22821 O(1)       83.0676   74.7242    9.4321 O.3       1 UNK         0.0000 
  22822 O(2)       85.0654   80.8930    9.5479 O.2       1 UNK         0.0000 
  22823 N(1)       82.8843   80.2886    9.3602 N.am      1 UNK         0.0000 
  22824 C(1)       82.9837   78.8801    9.4114 C.ar      1 UNK         0.0000 
  22825 C(2)       84.0659   78.1919    9.9597 C.ar      1 UNK         0.0000 
  22826 C(3)       84.0729   76.8001    9.9633 C.ar      1 UNK         0.0000 
  22827 C(4)       83.0029   76.0855    9.4309 C.ar      1 UNK         0.0000 
  22828 C(5)       81.9073   76.7734    8.9107 C.ar      1 UNK         0.0000 
  22829 C(6)       81.9020   78.1610    8.9020 C.ar      1 UNK         0.0000 
  22830 C(7)       83.8751   81.1939    9.4070 C.2       1 UNK         0.0000 
  22831 C(8)       83.4342   82.6280    9.2860 C.3       1 UNK         0.0000 
  22832 H(1)       84.9064   78.7344   10.3744 H         1 UNK         0.0000 
  22833 H(2)       84.9237   76.2836   10.3903 H         1 UNK         0.0000 
  22834 H(3)       81.0641   76.2242    8.5104 H         1 UNK         0.0000 
  22835 H(4)       81.0514   78.6945    8.4961 H         1 UNK         0.0000 
  22836 H(5)       82.1942   74.3416    9.2841 H         1 UNK         0.0000 
  22837 H(6)       81.9583   80.6520    9.1910 H         1 UNK         0.0000 
  22838 H(7)       83.5125   83.0911   10.2352 H         1 UNK         0.0000 
  22839 H(8)       82.4374   82.7261    8.9420 H         1 UNK         0.0000 
  22840 H(9)       84.1147   83.1457    8.6612 H         1 UNK         0.0000 
  22841 O(1)       73.2475   86.9219   15.5017 O.3       1 UNK         0.0000 
  22842 O(2)       75.2453   88.1620    9.4577 O.2       1 UNK         0.0000 
  22843 N(1)       73.0642   88.2126   10.0886 N.am      1 UNK         0.0000 
  22844 C(1)       73.1636   87.8537   11.4515 C.ar      1 UNK         0.0000 
  22845 C(2)       74.2458   87.1678   12.0027 C.ar      1 UNK         0.0000 
  22846 C(3)       74.2528   86.8590   13.3599 C.ar      1 UNK         0.0000 
  22847 C(4)       73.1828   87.2217   14.1738 C.ar      1 UNK         0.0000 
  22848 C(5)       72.0872   87.8801   13.6167 C.ar      1 UNK         0.0000 
  22849 C(6)       72.0819   88.1930   12.2649 C.ar      1 UNK         0.0000 
  22850 C(7)       74.0550   88.3654    9.1951 C.2       1 UNK         0.0000 
  22851 C(8)       73.6141   88.7981    7.8224 C.3       1 UNK         0.0000 
  22852 H(1)       75.0863   86.8821   11.3824 H         1 UNK         0.0000 
  22853 H(2)       75.1036   86.3291   13.7701 H         1 UNK         0.0000 
  22854 H(3)       71.2440   88.1502   14.2404 H         1 UNK         0.0000 
  22855 H(4)       71.2313   88.7060   11.8334 H         1 UNK         0.0000 
  22856 H(5)       72.3741   86.9824   15.9075 H         1 UNK         0.0000 
  22857 H(6)       72.1382   88.4573    9.7711 H         1 UNK         0.0000 
  22858 H(7)       73.6924   87.9736    7.1624 H         1 UNK         0.0000 
  22859 H(8)       72.6173   89.1552    7.8021 H         1 UNK         0.0000 
  22860 H(9)       74.2946   89.5212    7.4544 H         1 UNK         0.0000 
  22861 O(1)       74.3802   83.5611   12.3169 O.3       1 UNK         0.0000 
  22862 O(2)       72.3824   77.3923   12.2011 O.2       1 UNK         0.0000 
  22863 N(1)       74.5636   77.9967   12.3888 N.am      1 UNK         0.0000 
  22864 C(1)       74.4641   79.4051   12.3376 C.ar      1 UNK         0.0000 
  22865 C(2)       73.3819   80.0933   11.7893 C.ar      1 UNK         0.0000 
  22866 C(3)       73.3749   81.4851   11.7858 C.ar      1 UNK         0.0000 
  22867 C(4)       74.4449   82.1997   12.3181 C.ar      1 UNK         0.0000 
  22868 C(5)       75.5405   81.5118   12.8383 C.ar      1 UNK         0.0000 
  22869 C(6)       75.5459   80.1243   12.8470 C.ar      1 UNK         0.0000 
  22870 C(7)       73.5728   77.0914   12.3420 C.2       1 UNK         0.0000 
  22871 C(8)       74.0136   75.6572   12.4630 C.3       1 UNK         0.0000 
  22872 H(1)       72.5414   79.5508   11.3746 H         1 UNK         0.0000 
  22873 H(2)       72.5241   82.0016   11.3587 H         1 UNK         0.0000 
  22874 H(3)       76.3837   82.0611   13.2386 H         1 UNK         0.0000 
  22875 H(4)       76.3965   79.5908   13.2530 H         1 UNK         0.0000 
  22876 H(5)       75.2537   83.9437   12.4649 H         1 UNK         0.0000 
  22877 H(6)       75.4895   77.6332   12.5580 H         1 UNK         0.0000 
  22878 H(7)       73.9354   75.1941   11.5138 H         1 UNK         0.0000 
  22879 H(8)       75.0104   75.5591   12.8070 H         1 UNK         0.0000 
  22880 H(9)       73.3332   75.1396   13.0878 H         1 UNK         0.0000 
  22881 O(1)       78.7141   91.7766   13.4097 O.3       1 UNK         0.0000 
  22882 O(2)       76.7163   90.5366   19.4537 O.2       1 UNK         0.0000 
  22883 N(1)       78.8974   90.4859   18.8228 N.am      1 UNK         0.0000 
  22884 C(1)       78.7980   90.8448   17.4599 C.ar      1 UNK         0.0000 
  22885 C(2)       77.7158   91.5307   16.9087 C.ar      1 UNK         0.0000 
  22886 C(3)       77.7088   91.8395   15.5516 C.ar      1 UNK         0.0000 
  22887 C(4)       78.7788   91.4768   14.7376 C.ar      1 UNK         0.0000 
  22888 C(5)       79.8744   90.8185   15.2947 C.ar      1 UNK         0.0000 
  22889 C(6)       79.8797   90.5056   16.6465 C.ar      1 UNK         0.0000 
  22890 C(7)       77.9067   90.3331   19.7163 C.2       1 UNK         0.0000 
  22891 C(8)       78.3475   89.9005   21.0890 C.3       1 UNK         0.0000 
  22892 H(1)       76.8753   91.8164   17.5290 H         1 UNK         0.0000 
  22893 H(2)       76.8580   92.3694   15.1413 H         1 UNK         0.0000 
  22894 H(3)       80.7176   90.5484   14.6710 H         1 UNK         0.0000 
  22895 H(4)       80.7304   89.9925   17.0780 H         1 UNK         0.0000 
  22896 H(5)       79.5876   91.7161   13.0039 H         1 UNK         0.0000 
  22897 H(6)       79.8234   90.2412   19.1403 H         1 UNK         0.0000 
  22898 H(7)       78.2693   90.7249   21.7490 H         1 UNK         0.0000 
  22899 H(8)       79.3443   89.5433   21.1093 H         1 UNK         0.0000 
  22900 H(9)       77.6670   89.1774   21.4570 H         1 UNK         0.0000 
  22901 O(1)       83.0676   80.4552   16.5945 O.3       1 UNK         0.0000 
  22902 O(2)       85.0654   86.6239   16.7103 O.2       1 UNK         0.0000 
  22903 N(1)       82.8843   86.0195   16.5226 N.am      1 UNK         0.0000 
  22904 C(1)       82.9837   84.6111   16.5738 C.ar      1 UNK         0.0000 
  22905 C(2)       84.0659   83.9229   17.1221 C.ar      1 UNK         0.0000 
  22906 C(3)       84.0729   82.5311   17.1257 C.ar      1 UNK         0.0000 
  22907 C(4)       83.0029   81.8165   16.5933 C.ar      1 UNK         0.0000 
  22908 C(5)       81.9073   82.5044   16.0731 C.ar      1 UNK         0.0000 
  22909 C(6)       81.9020   83.8919   16.0644 C.ar      1 UNK         0.0000 
  22910 C(7)       83.8751   86.9248   16.5694 C.2       1 UNK         0.0000 
  22911 C(8)       83.4342   88.3590   16.4484 C.3       1 UNK         0.0000 
  22912 H(1)       84.9064   84.4654   17.5368 H         1 UNK         0.0000 
  22913 H(2)       84.9237   82.0146   17.5527 H         1 UNK         0.0000 
  22914 H(3)       81.0641   81.9551   15.6728 H         1 UNK         0.0000 
  22915 H(4)       81.0514   84.4254   15.6585 H         1 UNK         0.0000 
  22916 H(5)       82.1942   80.0725   16.4465 H         1 UNK         0.0000 
  22917 H(6)       81.9583   86.3830   16.3534 H         1 UNK         0.0000 
  22918 H(7)       83.5125   88.8221   17.3976 H         1 UNK         0.0000 
  22919 H(8)       82.4374   88.4571   16.1044 H         1 UNK         0.0000 
  22920 H(9)       84.1147   88.8766   15.8236 H         1 UNK         0.0000 
  22921 O(1)       78.7337   77.9705   22.6641 O.3       1 UNK         0.0000 
  22922 O(2)       80.7315   79.2106   16.6201 O.2       1 UNK         0.0000 
  22923 N(1)       78.5504   79.2612   17.2510 N.am      1 UNK         0.0000 
  22924 C(1)       78.6498   78.9023   18.6139 C.ar      1 UNK         0.0000 
  22925 C(2)       79.7320   78.2164   19.1651 C.ar      1 UNK         0.0000 
  22926 C(3)       79.7390   77.9077   20.5223 C.ar      1 UNK         0.0000 
  22927 C(4)       78.6690   78.2703   21.3362 C.ar      1 UNK         0.0000 
  22928 C(5)       77.5734   78.9287   20.7791 C.ar      1 UNK         0.0000 
  22929 C(6)       77.5681   79.2416   19.4273 C.ar      1 UNK         0.0000 
  22930 C(7)       79.5412   79.4141   16.3575 C.2       1 UNK         0.0000 
  22931 C(8)       79.1003   79.8467   14.9848 C.3       1 UNK         0.0000 
  22932 H(1)       80.5725   77.9308   18.5448 H         1 UNK         0.0000 
  22933 H(2)       80.5898   77.3778   20.9325 H         1 UNK         0.0000 
  22934 H(3)       76.7302   79.1988   21.4028 H         1 UNK         0.0000 
  22935 H(4)       76.7175   79.7547   18.9958 H         1 UNK         0.0000 
  22936 H(5)       77.8603   78.0310   23.0699 H         1 UNK         0.0000 
  22937 H(6)       77.6244   79.5060   16.9335 H         1 UNK         0.0000 
  22938 H(7)       79.1786   79.0222   14.3248 H         1 UNK         0.0000 
  22939 H(8)       78.1035   80.2038   14.9645 H         1 UNK         0.0000 
  22940 H(9)       79.7808   80.5698   14.6168 H         1 UNK         0.0000 
  22941 O(1)       81.4572   89.2920   19.4793 O.3       1 UNK         0.0000 
  22942 O(2)       79.4594   83.1232   19.3635 O.2       1 UNK         0.0000 
  22943 N(1)       81.6406   83.7276   19.5512 N.am      1 UNK         0.0000 
  22944 C(1)       81.5411   85.1361   19.5000 C.ar      1 UNK         0.0000 
  22945 C(2)       80.4589   85.8243   18.9517 C.ar      1 UNK         0.0000 
  22946 C(3)       80.4519   87.2161   18.9482 C.ar      1 UNK         0.0000 
  22947 C(4)       81.5219   87.9307   19.4805 C.ar      1 UNK         0.0000 
  22948 C(5)       82.6175   87.2428   20.0007 C.ar      1 UNK         0.0000 
  22949 C(6)       82.6229   85.8552   20.0094 C.ar      1 UNK         0.0000 
  22950 C(7)       80.6498   82.8223   19.5044 C.2       1 UNK         0.0000 
  22951 C(8)       81.0906   81.3882   19.6254 C.3       1 UNK         0.0000 
  22952 H(1)       79.6184   85.2818   18.5370 H         1 UNK         0.0000 
  22953 H(2)       79.6011   87.7326   18.5211 H         1 UNK         0.0000 
  22954 H(3)       83.4607   87.7920   20.4010 H         1 UNK         0.0000 
  22955 H(4)       83.4735   85.3217   20.4154 H         1 UNK         0.0000 
  22956 H(5)       82.3307   89.6746   19.6273 H         1 UNK         0.0000 
  22957 H(6)       82.5665   83.3642   19.7204 H         1 UNK         0.0000 
  22958 H(7)       81.0124   80.9251   18.6762 H         1 UNK         0.0000 
  22959 H(8)       82.0874   81.2901   19.9694 H         1 UNK         0.0000 
  22960 H(9)       80.4102   80.8705   20.2502 H         1 UNK         0.0000 
  22961 O(1)       77.1233   82.8253   20.5721 O.3       1 UNK         0.0000 
  22962 O(2)       75.1255   81.5852   26.6161 O.2       1 UNK         0.0000 
  22963 N(1)       77.3067   81.5346   25.9852 N.am      1 UNK         0.0000 
  22964 C(1)       77.2072   81.8935   24.6223 C.ar      1 UNK         0.0000 
  22965 C(2)       76.1251   82.5794   24.0711 C.ar      1 UNK         0.0000 
  22966 C(3)       76.1180   82.8881   22.7140 C.ar      1 UNK         0.0000 
  22967 C(4)       77.1880   82.5255   21.9000 C.ar      1 UNK         0.0000 
  22968 C(5)       78.2837   81.8671   22.4571 C.ar      1 UNK         0.0000 
  22969 C(6)       78.2890   81.5542   23.8089 C.ar      1 UNK         0.0000 
  22970 C(7)       76.3159   81.3817   26.8787 C.2       1 UNK         0.0000 
  22971 C(8)       76.7567   80.9491   28.2514 C.3       1 UNK         0.0000 
  22972 H(1)       75.2845   82.8650   24.6914 H         1 UNK         0.0000 
  22973 H(2)       75.2672   83.4180   22.3037 H         1 UNK         0.0000 
  22974 H(3)       79.1268   81.5970   21.8334 H         1 UNK         0.0000 
  22975 H(4)       79.1396   81.0412   24.2404 H         1 UNK         0.0000 
  22976 H(5)       77.9968   82.7648   20.1663 H         1 UNK         0.0000 
  22977 H(6)       78.2326   81.2898   26.3027 H         1 UNK         0.0000 
  22978 H(7)       76.6785   81.7736   28.9114 H         1 UNK         0.0000 
  22979 H(8)       77.7535   80.5920   28.2717 H         1 UNK         0.0000 
  22980 H(9)       76.0763   80.2260   28.6194 H         1 UNK         0.0000 
  22981 O(1)       75.9906   86.1861   23.7569 O.3       1 UNK         0.0000 
  22982 O(2)       77.9884   92.3549   23.8727 O.2       1 UNK         0.0000 
  22983 N(1)       75.8073   91.7505   23.6850 N.am      1 UNK         0.0000 
  22984 C(1)       75.9067   90.3421   23.7362 C.ar      1 UNK         0.0000 
  22985 C(2)       76.9889   89.6538   24.2845 C.ar      1 UNK         0.0000 
  22986 C(3)       76.9959   88.2620   24.2881 C.ar      1 UNK         0.0000 
  22987 C(4)       75.9259   87.5474   23.7557 C.ar      1 UNK         0.0000 
  22988 C(5)       74.8303   88.2353   23.2355 C.ar      1 UNK         0.0000 
  22989 C(6)       74.8250   89.6229   23.2268 C.ar      1 UNK         0.0000 
  22990 C(7)       76.7981   92.6558   23.7318 C.2       1 UNK         0.0000 
  22991 C(8)       76.3572   94.0899   23.6108 C.3       1 UNK         0.0000 
  22992 H(1)       77.8294   90.1964   24.6992 H         1 UNK         0.0000 
  22993 H(2)       77.8467   87.7456   24.7151 H         1 UNK         0.0000 
  22994 H(3)       73.9871   87.6861   22.8352 H         1 UNK         0.0000 
  22995 H(4)       73.9744   90.1564   22.8209 H         1 UNK         0.0000 
  22996 H(5)       75.1172   85.8035   23.6089 H         1 UNK         0.0000 
  22997 H(6)       74.8813   92.1140   23.5158 H         1 UNK         0.0000 
  22998 H(7)       76.4355   94.5530   24.5600 H         1 UNK         0.0000 
  22999 H(8)       75.3604   94.1881   23.2668 H         1 UNK         0.0000 
  23000 H(9)       77.0377   94.6076   22.9860 H         1 UNK         0.0000 
  23001 O(1)       80.3245   81.1909    8.3393 O.3       1 UNK         0.0000 
  23002 O(2)       82.3223   82.4310    2.2953 O.2       1 UNK         0.0000 
  23003 N(1)       80.1412   82.4816    2.9262 N.am      1 UNK         0.0000 
  23004 C(1)       80.2406   82.1227    4.2891 C.ar      1 UNK         0.0000 
  23005 C(2)       81.3228   81.4368    4.8403 C.ar      1 UNK         0.0000 
  23006 C(3)       81.3298   81.1281    6.1975 C.ar      1 UNK         0.0000 
  23007 C(4)       80.2598   81.4907    7.0114 C.ar      1 UNK         0.0000 
  23008 C(5)       79.1642   82.1491    6.4543 C.ar      1 UNK         0.0000 
  23009 C(6)       79.1589   82.4620    5.1025 C.ar      1 UNK         0.0000 
  23010 C(7)       81.1320   82.6345    2.0327 C.2       1 UNK         0.0000 
  23011 C(8)       80.6911   83.0671    0.6600 C.3       1 UNK         0.0000 
  23012 H(1)       82.1633   81.1512    4.2200 H         1 UNK         0.0000 
  23013 H(2)       82.1806   80.5982    6.6077 H         1 UNK         0.0000 
  23014 H(3)       78.3210   82.4192    7.0780 H         1 UNK         0.0000 
  23015 H(4)       78.3083   82.9751    4.6710 H         1 UNK         0.0000 
  23016 H(5)       79.4511   81.2514    8.7451 H         1 UNK         0.0000 
  23017 H(6)       79.2152   82.7264    2.6087 H         1 UNK         0.0000 
  23018 H(7)       80.7694   82.2426    0.0000 H         1 UNK         0.0000 
  23019 H(8)       79.6943   83.4242    0.6397 H         1 UNK         0.0000 
  23020 H(9)       81.3716   83.7902    0.2920 H         1 UNK         0.0000 
  23021 O(1)       83.0480   92.5124    5.1545 O.3       1 UNK         0.0000 
  23022 O(2)       81.0502   86.3436    5.0387 O.2       1 UNK         0.0000 
  23023 N(1)       83.2313   86.9480    5.2264 N.am      1 UNK         0.0000 
  23024 C(1)       83.1319   88.3565    5.1752 C.ar      1 UNK         0.0000 
  23025 C(2)       82.0497   89.0447    4.6269 C.ar      1 UNK         0.0000 
  23026 C(3)       82.0427   90.4365    4.6234 C.ar      1 UNK         0.0000 
  23027 C(4)       83.1127   91.1511    5.1557 C.ar      1 UNK         0.0000 
  23028 C(5)       84.2083   90.4632    5.6759 C.ar      1 UNK         0.0000 
  23029 C(6)       84.2136   89.0756    5.6846 C.ar      1 UNK         0.0000 
  23030 C(7)       82.2406   86.0427    5.1796 C.2       1 UNK         0.0000 
  23031 C(8)       82.6814   84.6086    5.3006 C.3       1 UNK         0.0000 
  23032 H(1)       81.2092   88.5022    4.2122 H         1 UNK         0.0000 
  23033 H(2)       81.1919   90.9530    4.1963 H         1 UNK         0.0000 
  23034 H(3)       85.0515   91.0124    6.0762 H         1 UNK         0.0000 
  23035 H(4)       85.0643   88.5421    6.0906 H         1 UNK         0.0000 
  23036 H(5)       83.9214   92.8950    5.3025 H         1 UNK         0.0000 
  23037 H(6)       84.1573   86.5846    5.3956 H         1 UNK         0.0000 
  23038 H(7)       82.6032   84.1455    4.3514 H         1 UNK         0.0000 
  23039 H(8)       83.6782   84.5105    5.6446 H         1 UNK         0.0000 
  23040 H(9)       82.0009   84.0909    5.9254 H         1 UNK         0.0000 
  23041 O(1)       80.3049  100.7280    6.2473 O.3       1 UNK         0.0000 
  23042 O(2)       78.3071   99.4879   12.2913 O.2       1 UNK         0.0000 
  23043 N(1)       80.4882   99.4373   11.6604 N.am      1 UNK         0.0000 
  23044 C(1)       80.3888   99.7962   10.2975 C.ar      1 UNK         0.0000 
  23045 C(2)       79.3066  100.4821    9.7463 C.ar      1 UNK         0.0000 
  23046 C(3)       79.2996  100.7909    8.3892 C.ar      1 UNK         0.0000 
  23047 C(4)       80.3696  100.4282    7.5752 C.ar      1 UNK         0.0000 
  23048 C(5)       81.4652   99.7698    8.1323 C.ar      1 UNK         0.0000 
  23049 C(6)       81.4705   99.4569    9.4841 C.ar      1 UNK         0.0000 
  23050 C(7)       79.4975   99.2845   12.5539 C.2       1 UNK         0.0000 
  23051 C(8)       79.9383   98.8518   13.9266 C.3       1 UNK         0.0000 
  23052 H(1)       78.4661  100.7678   10.3666 H         1 UNK         0.0000 
  23053 H(2)       78.4488  101.3208    7.9789 H         1 UNK         0.0000 
  23054 H(3)       82.3084   99.4997    7.5086 H         1 UNK         0.0000 
  23055 H(4)       82.3211   98.9439    9.9156 H         1 UNK         0.0000 
  23056 H(5)       81.1783  100.6675    5.8415 H         1 UNK         0.0000 
  23057 H(6)       81.4142   99.1926   11.9779 H         1 UNK         0.0000 
  23058 H(7)       79.8600   99.6763   14.5866 H         1 UNK         0.0000 
  23059 H(8)       80.9351   98.4947   13.9469 H         1 UNK         0.0000 
  23060 H(9)       79.2578   98.1287   14.2946 H         1 UNK         0.0000 
  23061 O(1)       84.6584   89.4065    9.4321 O.3       1 UNK         0.0000 
  23062 O(2)       86.6562   95.5753    9.5479 O.2       1 UNK         0.0000 
  23063 N(1)       84.4751   94.9709    9.3602 N.am      1 UNK         0.0000 
  23064 C(1)       84.5745   93.5625    9.4114 C.ar      1 UNK         0.0000 
  23065 C(2)       85.6567   92.8742    9.9597 C.ar      1 UNK         0.0000 
  23066 C(3)       85.6637   91.4824    9.9633 C.ar      1 UNK         0.0000 
  23067 C(4)       84.5937   90.7678    9.4309 C.ar      1 UNK         0.0000 
  23068 C(5)       83.4981   91.4557    8.9107 C.ar      1 UNK         0.0000 
  23069 C(6)       83.4928   92.8433    8.9020 C.ar      1 UNK         0.0000 
  23070 C(7)       85.4658   95.8762    9.4070 C.2       1 UNK         0.0000 
  23071 C(8)       85.0250   97.3103    9.2860 C.3       1 UNK         0.0000 
  23072 H(1)       86.4972   93.4168   10.3744 H         1 UNK         0.0000 
  23073 H(2)       86.5145   90.9660   10.3903 H         1 UNK         0.0000 
  23074 H(3)       82.6549   90.9065    8.5104 H         1 UNK         0.0000 
  23075 H(4)       82.6422   93.3768    8.4961 H         1 UNK         0.0000 
  23076 H(5)       83.7850   89.0239    9.2841 H         1 UNK         0.0000 
  23077 H(6)       83.5491   95.3344    9.1910 H         1 UNK         0.0000 
  23078 H(7)       85.1032   97.7734   10.2352 H         1 UNK         0.0000 
  23079 H(8)       84.0282   97.4085    8.9420 H         1 UNK         0.0000 
  23080 H(9)       85.7055   97.8280    8.6612 H         1 UNK         0.0000 
  23081 O(1)       74.8383  101.6042   15.5017 O.3       1 UNK         0.0000 
  23082 O(2)       76.8361  102.8443    9.4577 O.2       1 UNK         0.0000 
  23083 N(1)       74.6550  102.8949   10.0886 N.am      1 UNK         0.0000 
  23084 C(1)       74.7544  102.5360   11.4515 C.ar      1 UNK         0.0000 
  23085 C(2)       75.8366  101.8501   12.0027 C.ar      1 UNK         0.0000 
  23086 C(3)       75.8436  101.5414   13.3599 C.ar      1 UNK         0.0000 
  23087 C(4)       74.7736  101.9040   14.1738 C.ar      1 UNK         0.0000 
  23088 C(5)       73.6780  102.5624   13.6167 C.ar      1 UNK         0.0000 
  23089 C(6)       73.6727  102.8753   12.2649 C.ar      1 UNK         0.0000 
  23090 C(7)       75.6457  103.0478    9.1951 C.2       1 UNK         0.0000 
  23091 C(8)       75.2049  103.4804    7.8224 C.3       1 UNK         0.0000 
  23092 H(1)       76.6771  101.5645   11.3824 H         1 UNK         0.0000 
  23093 H(2)       76.6944  101.0115   13.7701 H         1 UNK         0.0000 
  23094 H(3)       72.8348  102.8325   14.2404 H         1 UNK         0.0000 
  23095 H(4)       72.8220  103.3883   11.8334 H         1 UNK         0.0000 
  23096 H(5)       73.9648  101.6647   15.9075 H         1 UNK         0.0000 
  23097 H(6)       73.7290  103.1397    9.7711 H         1 UNK         0.0000 
  23098 H(7)       75.2831  102.6559    7.1624 H         1 UNK         0.0000 
  23099 H(8)       74.2081  103.8375    7.8021 H         1 UNK         0.0000 
  23100 H(9)       75.8854  104.2035    7.4544 H         1 UNK         0.0000 
  23101 O(1)       75.9710   98.2434   12.3169 O.3       1 UNK         0.0000 
  23102 O(2)       73.9732   92.0746   12.2011 O.2       1 UNK         0.0000 
  23103 N(1)       76.1543   92.6790   12.3888 N.am      1 UNK         0.0000 
  23104 C(1)       76.0549   94.0874   12.3376 C.ar      1 UNK         0.0000 
  23105 C(2)       74.9727   94.7757   11.7893 C.ar      1 UNK         0.0000 
  23106 C(3)       74.9657   96.1675   11.7858 C.ar      1 UNK         0.0000 
  23107 C(4)       76.0357   96.8821   12.3181 C.ar      1 UNK         0.0000 
  23108 C(5)       77.1313   96.1941   12.8383 C.ar      1 UNK         0.0000 
  23109 C(6)       77.1366   94.8066   12.8470 C.ar      1 UNK         0.0000 
  23110 C(7)       75.1636   91.7737   12.3420 C.2       1 UNK         0.0000 
  23111 C(8)       75.6044   90.3396   12.4630 C.3       1 UNK         0.0000 
  23112 H(1)       74.1322   94.2331   11.3746 H         1 UNK         0.0000 
  23113 H(2)       74.1149   96.6839   11.3587 H         1 UNK         0.0000 
  23114 H(3)       77.9745   96.7434   13.2386 H         1 UNK         0.0000 
  23115 H(4)       77.9873   94.2731   13.2530 H         1 UNK         0.0000 
  23116 H(5)       76.8444   98.6260   12.4649 H         1 UNK         0.0000 
  23117 H(6)       77.0803   92.3155   12.5580 H         1 UNK         0.0000 
  23118 H(7)       75.5262   89.8765   11.5138 H         1 UNK         0.0000 
  23119 H(8)       76.6012   90.2414   12.8070 H         1 UNK         0.0000 
  23120 H(9)       74.9239   89.8219   13.0878 H         1 UNK         0.0000 
  23121 O(1)       80.3049  106.4590   13.4097 O.3       1 UNK         0.0000 
  23122 O(2)       78.3071  105.2189   19.4537 O.2       1 UNK         0.0000 
  23123 N(1)       80.4882  105.1683   18.8228 N.am      1 UNK         0.0000 
  23124 C(1)       80.3888  105.5272   17.4599 C.ar      1 UNK         0.0000 
  23125 C(2)       79.3066  106.2131   16.9087 C.ar      1 UNK         0.0000 
  23126 C(3)       79.2996  106.5218   15.5516 C.ar      1 UNK         0.0000 
  23127 C(4)       80.3696  106.1592   14.7376 C.ar      1 UNK         0.0000 
  23128 C(5)       81.4652  105.5008   15.2947 C.ar      1 UNK         0.0000 
  23129 C(6)       81.4705  105.1879   16.6465 C.ar      1 UNK         0.0000 
  23130 C(7)       79.4975  105.0154   19.7163 C.2       1 UNK         0.0000 
  23131 C(8)       79.9383  104.5828   21.0890 C.3       1 UNK         0.0000 
  23132 H(1)       78.4661  106.4987   17.5290 H         1 UNK         0.0000 
  23133 H(2)       78.4488  107.0517   15.1413 H         1 UNK         0.0000 
  23134 H(3)       82.3084  105.2307   14.6710 H         1 UNK         0.0000 
  23135 H(4)       82.3211  104.6748   17.0780 H         1 UNK         0.0000 
  23136 H(5)       81.1783  106.3985   13.0039 H         1 UNK         0.0000 
  23137 H(6)       81.4142  104.9235   19.1403 H         1 UNK         0.0000 
  23138 H(7)       79.8600  105.4073   21.7490 H         1 UNK         0.0000 
  23139 H(8)       80.9351  104.2257   21.1093 H         1 UNK         0.0000 
  23140 H(9)       79.2578  103.8597   21.4570 H         1 UNK         0.0000 
  23141 O(1)       84.6584   95.1375   16.5945 O.3       1 UNK         0.0000 
  23142 O(2)       86.6562  101.3063   16.7103 O.2       1 UNK         0.0000 
  23143 N(1)       84.4751  100.7019   16.5226 N.am      1 UNK         0.0000 
  23144 C(1)       84.5745   99.2934   16.5738 C.ar      1 UNK         0.0000 
  23145 C(2)       85.6567   98.6052   17.1221 C.ar      1 UNK         0.0000 
  23146 C(3)       85.6637   97.2134   17.1257 C.ar      1 UNK         0.0000 
  23147 C(4)       84.5937   96.4988   16.5933 C.ar      1 UNK         0.0000 
  23148 C(5)       83.4981   97.1867   16.0731 C.ar      1 UNK         0.0000 
  23149 C(6)       83.4928   98.5743   16.0644 C.ar      1 UNK         0.0000 
  23150 C(7)       85.4658  101.6072   16.5694 C.2       1 UNK         0.0000 
  23151 C(8)       85.0250  103.0413   16.4484 C.3       1 UNK         0.0000 
  23152 H(1)       86.4972   99.1477   17.5368 H         1 UNK         0.0000 
  23153 H(2)       86.5145   96.6969   17.5527 H         1 UNK         0.0000 
  23154 H(3)       82.6549   96.6375   15.6728 H         1 UNK         0.0000 
  23155 H(4)       82.6422   99.1078   15.6585 H         1 UNK         0.0000 
  23156 H(5)       83.7850   94.7549   16.4465 H         1 UNK         0.0000 
  23157 H(6)       83.5491  101.0653   16.3534 H         1 UNK         0.0000 
  23158 H(7)       85.1032  103.5044   17.3976 H         1 UNK         0.0000 
  23159 H(8)       84.0282  103.1394   16.1044 H         1 UNK         0.0000 
  23160 H(9)       85.7055  103.5590   15.8236 H         1 UNK         0.0000 
  23161 O(1)       80.3245   92.6529   22.6641 O.3       1 UNK         0.0000 
  23162 O(2)       82.3223   93.8929   16.6201 O.2       1 UNK         0.0000 
  23163 N(1)       80.1412   93.9436   17.2510 N.am      1 UNK         0.0000 
  23164 C(1)       80.2406   93.5847   18.6139 C.ar      1 UNK         0.0000 
  23165 C(2)       81.3228   92.8988   19.1651 C.ar      1 UNK         0.0000 
  23166 C(3)       81.3298   92.5900   20.5223 C.ar      1 UNK         0.0000 
  23167 C(4)       80.2598   92.9527   21.3362 C.ar      1 UNK         0.0000 
  23168 C(5)       79.1642   93.6110   20.7791 C.ar      1 UNK         0.0000 
  23169 C(6)       79.1589   93.9239   19.4273 C.ar      1 UNK         0.0000 
  23170 C(7)       81.1320   94.0964   16.3575 C.2       1 UNK         0.0000 
  23171 C(8)       80.6911   94.5290   14.9848 C.3       1 UNK         0.0000 
  23172 H(1)       82.1633   92.6131   18.5448 H         1 UNK         0.0000 
  23173 H(2)       82.1806   92.0601   20.9325 H         1 UNK         0.0000 
  23174 H(3)       78.3210   93.8811   21.4028 H         1 UNK         0.0000 
  23175 H(4)       78.3083   94.4370   18.9958 H         1 UNK         0.0000 
  23176 H(5)       79.4511   92.7134   23.0699 H         1 UNK         0.0000 
  23177 H(6)       79.2152   94.1883   16.9335 H         1 UNK         0.0000 
  23178 H(7)       80.7694   93.7046   14.3248 H         1 UNK         0.0000 
  23179 H(8)       79.6943   94.8862   14.9645 H         1 UNK         0.0000 
  23180 H(9)       81.3716   95.2521   14.6168 H         1 UNK         0.0000 
  23181 O(1)       83.0480  103.9743   19.4793 O.3       1 UNK         0.0000 
  23182 O(2)       81.0502   97.8056   19.3635 O.2       1 UNK         0.0000 
  23183 N(1)       83.2313   98.4100   19.5512 N.am      1 UNK         0.0000 
  23184 C(1)       83.1319   99.8184   19.5000 C.ar      1 UNK         0.0000 
  23185 C(2)       82.0497  100.5066   18.9517 C.ar      1 UNK         0.0000 
  23186 C(3)       82.0427  101.8984   18.9482 C.ar      1 UNK         0.0000 
  23187 C(4)       83.1127  102.6130   19.4805 C.ar      1 UNK         0.0000 
  23188 C(5)       84.2083  101.9251   20.0007 C.ar      1 UNK         0.0000 
  23189 C(6)       84.2136  100.5376   20.0094 C.ar      1 UNK         0.0000 
  23190 C(7)       82.2406   97.5047   19.5044 C.2       1 UNK         0.0000 
  23191 C(8)       82.6814   96.0705   19.6254 C.3       1 UNK         0.0000 
  23192 H(1)       81.2092   99.9641   18.5370 H         1 UNK         0.0000 
  23193 H(2)       81.1919  102.4149   18.5211 H         1 UNK         0.0000 
  23194 H(3)       85.0515  102.4744   20.4010 H         1 UNK         0.0000 
  23195 H(4)       85.0643  100.0041   20.4154 H         1 UNK         0.0000 
  23196 H(5)       83.9214  104.3570   19.6273 H         1 UNK         0.0000 
  23197 H(6)       84.1573   98.0465   19.7204 H         1 UNK         0.0000 
  23198 H(7)       82.6032   95.6074   18.6762 H         1 UNK         0.0000 
  23199 H(8)       83.6782   95.9724   19.9694 H         1 UNK         0.0000 
  23200 H(9)       82.0009   95.5529   20.2502 H         1 UNK         0.0000 
  23201 O(1)       78.7141   97.5076   20.5721 O.3       1 UNK         0.0000 
  23202 O(2)       76.7163   96.2675   26.6161 O.2       1 UNK         0.0000 
  23203 N(1)       78.8974   96.2169   25.9852 N.am      1 UNK         0.0000 
  23204 C(1)       78.7980   96.5758   24.6223 C.ar      1 UNK         0.0000 
  23205 C(2)       77.7158   97.2617   24.0711 C.ar      1 UNK         0.0000 
  23206 C(3)       77.7088   97.5705   22.7140 C.ar      1 UNK         0.0000 
  23207 C(4)       78.7788   97.2078   21.9000 C.ar      1 UNK         0.0000 
  23208 C(5)       79.8744   96.5494   22.4571 C.ar      1 UNK         0.0000 
  23209 C(6)       79.8797   96.2365   23.8089 C.ar      1 UNK         0.0000 
  23210 C(7)       77.9067   96.0641   26.8787 C.2       1 UNK         0.0000 
  23211 C(8)       78.3475   95.6314   28.2514 C.3       1 UNK         0.0000 
  23212 H(1)       76.8753   97.5474   24.6914 H         1 UNK         0.0000 
  23213 H(2)       76.8580   98.1004   22.3037 H         1 UNK         0.0000 
  23214 H(3)       80.7176   96.2793   21.8334 H         1 UNK         0.0000 
  23215 H(4)       80.7304   95.7235   24.2404 H         1 UNK         0.0000 
  23216 H(5)       79.5876   97.4471   20.1663 H         1 UNK         0.0000 
  23217 H(6)       79.8234   95.9722   26.3027 H         1 UNK         0.0000 
  23218 H(7)       78.2693   96.4559   28.9114 H         1 UNK         0.0000 
  23219 H(8)       79.3443   95.2743   28.2717 H         1 UNK         0.0000 
  23220 H(9)       77.6670   94.9083   28.6194 H         1 UNK         0.0000 
  23221 O(1)       77.5814  100.8684   23.7569 O.3       1 UNK         0.0000 
  23222 O(2)       79.5792  107.0372   23.8727 O.2       1 UNK         0.0000 
  23223 N(1)       77.3981  106.4328   23.6850 N.am      1 UNK         0.0000 
  23224 C(1)       77.4975  105.0244   23.7362 C.ar      1 UNK         0.0000 
  23225 C(2)       78.5797  104.3362   24.2845 C.ar      1 UNK         0.0000 
  23226 C(3)       78.5867  102.9444   24.2881 C.ar      1 UNK         0.0000 
  23227 C(4)       77.5167  102.2298   23.7557 C.ar      1 UNK         0.0000 
  23228 C(5)       76.4211  102.9177   23.2355 C.ar      1 UNK         0.0000 
  23229 C(6)       76.4158  104.3052   23.2268 C.ar      1 UNK         0.0000 
  23230 C(7)       78.3888  107.3381   23.7318 C.2       1 UNK         0.0000 
  23231 C(8)       77.9480  108.7723   23.6108 C.3       1 UNK         0.0000 
  23232 H(1)       79.4202  104.8787   24.6992 H         1 UNK         0.0000 
  23233 H(2)       79.4375  102.4279   24.7151 H         1 UNK         0.0000 
  23234 H(3)       75.5779  102.3684   22.8352 H         1 UNK         0.0000 
  23235 H(4)       75.5652  104.8387   22.8209 H         1 UNK         0.0000 
  23236 H(5)       76.7080  100.4858   23.6089 H         1 UNK         0.0000 
  23237 H(6)       76.4721  106.7963   23.5158 H         1 UNK         0.0000 
  23238 H(7)       78.0262  109.2354   24.5600 H         1 UNK         0.0000 
  23239 H(8)       76.9512  108.8704   23.2668 H         1 UNK         0.0000 
  23240 H(9)       78.6285  109.2899   22.9860 H         1 UNK         0.0000 
  23241 O(1)       81.9153   95.8732    8.3393 O.3       1 UNK         0.0000 
  23242 O(2)       83.9131   97.1133    2.2953 O.2       1 UNK         0.0000 
  23243 N(1)       81.7320   97.1640    2.9262 N.am      1 UNK         0.0000 
  23244 C(1)       81.8314   96.8050    4.2891 C.ar      1 UNK         0.0000 
  23245 C(2)       82.9136   96.1192    4.8403 C.ar      1 UNK         0.0000 
  23246 C(3)       82.9206   95.8104    6.1975 C.ar      1 UNK         0.0000 
  23247 C(4)       81.8506   96.1731    7.0114 C.ar      1 UNK         0.0000 
  23248 C(5)       80.7550   96.8314    6.4543 C.ar      1 UNK         0.0000 
  23249 C(6)       80.7497   97.1443    5.1025 C.ar      1 UNK         0.0000 
  23250 C(7)       82.7227   97.3168    2.0327 C.2       1 UNK         0.0000 
  23251 C(8)       82.2819   97.7494    0.6600 C.3       1 UNK         0.0000 
  23252 H(1)       83.7541   95.8335    4.2200 H         1 UNK         0.0000 
  23253 H(2)       83.7714   95.2805    6.6077 H         1 UNK         0.0000 
  23254 H(3)       79.9118   97.1015    7.0780 H         1 UNK         0.0000 
  23255 H(4)       79.8990   97.6574    4.6710 H         1 UNK         0.0000 
  23256 H(5)       81.0418   95.9338    8.7451 H         1 UNK         0.0000 
  23257 H(6)       80.8060   97.4087    2.6087 H         1 UNK         0.0000 
  23258 H(7)       82.3601   96.9250    0.0000 H         1 UNK         0.0000 
  23259 H(8)       81.2851   98.1066    0.6397 H         1 UNK         0.0000 
  23260 H(9)       82.9624   98.4725    0.2920 H         1 UNK         0.0000 
  23261 O(1)       84.6388  107.1947    5.1545 O.3       1 UNK         0.0000 
  23262 O(2)       82.6410  101.0260    5.0387 O.2       1 UNK         0.0000 
  23263 N(1)       84.8221  101.6304    5.2264 N.am      1 UNK         0.0000 
  23264 C(1)       84.7227  103.0388    5.1752 C.ar      1 UNK         0.0000 
  23265 C(2)       83.6405  103.7270    4.6269 C.ar      1 UNK         0.0000 
  23266 C(3)       83.6335  105.1188    4.6234 C.ar      1 UNK         0.0000 
  23267 C(4)       84.7035  105.8334    5.1557 C.ar      1 UNK         0.0000 
  23268 C(5)       85.7991  105.1455    5.6759 C.ar      1 UNK         0.0000 
  23269 C(6)       85.8044  103.7580    5.6846 C.ar      1 UNK         0.0000 
  23270 C(7)       83.8313  100.7251    5.1796 C.2       1 UNK         0.0000 
  23271 C(8)       84.2722   99.2909    5.3006 C.3       1 UNK         0.0000 
  23272 H(1)       82.8000  103.1845    4.2122 H         1 UNK         0.0000 
  23273 H(2)       82.7827  105.6353    4.1963 H         1 UNK         0.0000 
  23274 H(3)       86.6423  105.6948    6.0762 H         1 UNK         0.0000 
  23275 H(4)       86.6550  103.2245    6.0906 H         1 UNK         0.0000 
  23276 H(5)       85.5122  107.5773    5.3025 H         1 UNK         0.0000 
  23277 H(6)       85.7481  101.2669    5.3956 H         1 UNK         0.0000 
  23278 H(7)       84.1939   98.8278    4.3514 H         1 UNK         0.0000 
  23279 H(8)       85.2690   99.1928    5.6446 H         1 UNK         0.0000 
  23280 H(9)       83.5917   98.7733    5.9254 H         1 UNK         0.0000 
  23281 O(1)       81.8957  115.4103    6.2473 O.3       1 UNK         0.0000 
  23282 O(2)       79.8979  114.1703   12.2913 O.2       1 UNK         0.0000 
  23283 N(1)       82.0790  114.1196   11.6604 N.am      1 UNK         0.0000 
  23284 C(1)       81.9796  114.4785   10.2975 C.ar      1 UNK         0.0000 
  23285 C(2)       80.8974  115.1644    9.7463 C.ar      1 UNK         0.0000 
  23286 C(3)       80.8904  115.4732    8.3892 C.ar      1 UNK         0.0000 
  23287 C(4)       81.9604  115.1105    7.5752 C.ar      1 UNK         0.0000 
  23288 C(5)       83.0560  114.4521    8.1323 C.ar      1 UNK         0.0000 
  23289 C(6)       83.0613  114.1393    9.4841 C.ar      1 UNK         0.0000 
  23290 C(7)       81.0882  113.9668   12.5539 C.2       1 UNK         0.0000 
  23291 C(8)       81.5291  113.5342   13.9266 C.3       1 UNK         0.0000 
  23292 H(1)       80.0569  115.4501   10.3666 H         1 UNK         0.0000 
  23293 H(2)       80.0396  116.0031    7.9789 H         1 UNK         0.0000 
  23294 H(3)       83.8992  114.1821    7.5086 H         1 UNK         0.0000 
  23295 H(4)       83.9119  113.6262    9.9156 H         1 UNK         0.0000 
  23296 H(5)       82.7691  115.3498    5.8415 H         1 UNK         0.0000 
  23297 H(6)       83.0050  113.8749   11.9779 H         1 UNK         0.0000 
  23298 H(7)       81.4508  114.3586   14.5866 H         1 UNK         0.0000 
  23299 H(8)       82.5259  113.1770   13.9469 H         1 UNK         0.0000 
  23300 H(9)       80.8486  112.8111   14.2946 H         1 UNK         0.0000 
  23301 O(1)       86.2492  104.0888    9.4321 O.3       1 UNK         0.0000 
  23302 O(2)       88.2470  110.2576    9.5479 O.2       1 UNK         0.0000 
  23303 N(1)       86.0658  109.6532    9.3602 N.am      1 UNK         0.0000 
  23304 C(1)       86.1653  108.2448    9.4114 C.ar      1 UNK         0.0000 
  23305 C(2)       87.2475  107.5566    9.9597 C.ar      1 UNK         0.0000 
  23306 C(3)       87.2545  106.1648    9.9633 C.ar      1 UNK         0.0000 
  23307 C(4)       86.1845  105.4502    9.4309 C.ar      1 UNK         0.0000 
  23308 C(5)       85.0889  106.1381    8.9107 C.ar      1 UNK         0.0000 
  23309 C(6)       85.0836  107.5256    8.9020 C.ar      1 UNK         0.0000 
  23310 C(7)       87.0566  110.5585    9.4070 C.2       1 UNK         0.0000 
  23311 C(8)       86.6158  111.9927    9.2860 C.3       1 UNK         0.0000 
  23312 H(1)       88.0880  108.0991   10.3744 H         1 UNK         0.0000 
  23313 H(2)       88.1053  105.6483   10.3903 H         1 UNK         0.0000 
  23314 H(3)       84.2457  105.5888    8.5104 H         1 UNK         0.0000 
  23315 H(4)       84.2329  108.0591    8.4961 H         1 UNK         0.0000 
  23316 H(5)       85.3757  103.7062    9.2841 H         1 UNK         0.0000 
  23317 H(6)       85.1399  110.0167    9.1910 H         1 UNK         0.0000 
  23318 H(7)       86.6940  112.4558   10.2352 H         1 UNK         0.0000 
  23319 H(8)       85.6190  112.0908    8.9420 H         1 UNK         0.0000 
  23320 H(9)       87.2963  112.5103    8.6612 H         1 UNK         0.0000 
  23321 O(1)       76.4291  116.2865   15.5017 O.3       1 UNK         0.0000 
  23322 O(2)       78.4269  117.5266    9.4577 O.2       1 UNK         0.0000 
  23323 N(1)       76.2457  117.5773   10.0886 N.am      1 UNK         0.0000 
  23324 C(1)       76.3452  117.2183   11.4515 C.ar      1 UNK         0.0000 
  23325 C(2)       77.4273  116.5325   12.0027 C.ar      1 UNK         0.0000 
  23326 C(3)       77.4344  116.2237   13.3599 C.ar      1 UNK         0.0000 
  23327 C(4)       76.3644  116.5864   14.1738 C.ar      1 UNK         0.0000 
  23328 C(5)       75.2687  117.2447   13.6167 C.ar      1 UNK         0.0000 
  23329 C(6)       75.2634  117.5576   12.2649 C.ar      1 UNK         0.0000 
  23330 C(7)       77.2365  117.7301    9.1951 C.2       1 UNK         0.0000 
  23331 C(8)       76.7957  118.1627    7.8224 C.3       1 UNK         0.0000 
  23332 H(1)       78.2679  116.2468   11.3824 H         1 UNK         0.0000 
  23333 H(2)       78.2852  115.6938   13.7701 H         1 UNK         0.0000 
  23334 H(3)       74.4256  117.5148   14.2404 H         1 UNK         0.0000 
  23335 H(4)       74.4128  118.0707   11.8334 H         1 UNK         0.0000 
  23336 H(5)       75.5556  116.3471   15.9075 H         1 UNK         0.0000 
  23337 H(6)       75.3198  117.8220    9.7711 H         1 UNK         0.0000 
  23338 H(7)       76.8739  117.3383    7.1624 H         1 UNK         0.0000 
  23339 H(8)       75.7989  118.5199    7.8021 H         1 UNK         0.0000 
  23340 H(9)       77.4761  118.8858    7.4544 H         1 UNK         0.0000 
  23341 O(1)       77.5618  112.9257   12.3169 O.3       1 UNK         0.0000 
  23342 O(2)       75.5640  106.7569   12.2011 O.2       1 UNK         0.0000 
  23343 N(1)       77.7451  107.3613   12.3888 N.am      1 UNK         0.0000 
  23344 C(1)       77.6457  108.7698   12.3376 C.ar      1 UNK         0.0000 
  23345 C(2)       76.5635  109.4580   11.7893 C.ar      1 UNK         0.0000 
  23346 C(3)       76.5565  110.8498   11.7858 C.ar      1 UNK         0.0000 
  23347 C(4)       77.6265  111.5644   12.3181 C.ar      1 UNK         0.0000 
  23348 C(5)       78.7221  110.8765   12.8383 C.ar      1 UNK         0.0000 
  23349 C(6)       78.7274  109.4889   12.8470 C.ar      1 UNK         0.0000 
  23350 C(7)       76.7543  106.4560   12.3420 C.2       1 UNK         0.0000 
  23351 C(8)       77.1952  105.0219   12.4630 C.3       1 UNK         0.0000 
  23352 H(1)       75.7230  108.9154   11.3746 H         1 UNK         0.0000 
  23353 H(2)       75.7057  111.3663   11.3587 H         1 UNK         0.0000 
  23354 H(3)       79.5653  111.4257   13.2386 H         1 UNK         0.0000 
  23355 H(4)       79.5780  108.9554   13.2530 H         1 UNK         0.0000 
  23356 H(5)       78.4352  113.3083   12.4649 H         1 UNK         0.0000 
  23357 H(6)       78.6711  106.9979   12.5580 H         1 UNK         0.0000 
  23358 H(7)       77.1169  104.5588   11.5138 H         1 UNK         0.0000 
  23359 H(8)       78.1920  104.9238   12.8070 H         1 UNK         0.0000 
  23360 H(9)       76.5147  104.5042   13.0878 H         1 UNK         0.0000 
  23361 O(1)       81.8957  121.1413   13.4097 O.3       1 UNK         0.0000 
  23362 O(2)       79.8979  119.9012   19.4537 O.2       1 UNK         0.0000 
  23363 N(1)       82.0790  119.8506   18.8228 N.am      1 UNK         0.0000 
  23364 C(1)       81.9796  120.2095   17.4599 C.ar      1 UNK         0.0000 
  23365 C(2)       80.8974  120.8954   16.9087 C.ar      1 UNK         0.0000 
  23366 C(3)       80.8904  121.2042   15.5516 C.ar      1 UNK         0.0000 
  23367 C(4)       81.9604  120.8415   14.7376 C.ar      1 UNK         0.0000 
  23368 C(5)       83.0560  120.1831   15.2947 C.ar      1 UNK         0.0000 
  23369 C(6)       83.0613  119.8702   16.6465 C.ar      1 UNK         0.0000 
  23370 C(7)       81.0882  119.6978   19.7163 C.2       1 UNK         0.0000 
  23371 C(8)       81.5291  119.2651   21.0890 C.3       1 UNK         0.0000 
  23372 H(1)       80.0569  121.1810   17.5290 H         1 UNK         0.0000 
  23373 H(2)       80.0396  121.7341   15.1413 H         1 UNK         0.0000 
  23374 H(3)       83.8992  119.9130   14.6710 H         1 UNK         0.0000 
  23375 H(4)       83.9119  119.3572   17.0780 H         1 UNK         0.0000 
  23376 H(5)       82.7691  121.0808   13.0039 H         1 UNK         0.0000 
  23377 H(6)       83.0050  119.6059   19.1403 H         1 UNK         0.0000 
  23378 H(7)       81.4508  120.0896   21.7490 H         1 UNK         0.0000 
  23379 H(8)       82.5259  118.9080   21.1093 H         1 UNK         0.0000 
  23380 H(9)       80.8486  118.5420   21.4570 H         1 UNK         0.0000 
  23381 O(1)       86.2492  109.8198   16.5945 O.3       1 UNK         0.0000 
  23382 O(2)       88.2470  115.9886   16.7103 O.2       1 UNK         0.0000 
  23383 N(1)       86.0658  115.3842   16.5226 N.am      1 UNK         0.0000 
  23384 C(1)       86.1653  113.9758   16.5738 C.ar      1 UNK         0.0000 
  23385 C(2)       87.2475  113.2875   17.1221 C.ar      1 UNK         0.0000 
  23386 C(3)       87.2545  111.8957   17.1257 C.ar      1 UNK         0.0000 
  23387 C(4)       86.1845  111.1811   16.5933 C.ar      1 UNK         0.0000 
  23388 C(5)       85.0889  111.8690   16.0731 C.ar      1 UNK         0.0000 
  23389 C(6)       85.0836  113.2566   16.0644 C.ar      1 UNK         0.0000 
  23390 C(7)       87.0566  116.2895   16.5694 C.2       1 UNK         0.0000 
  23391 C(8)       86.6158  117.7236   16.4484 C.3       1 UNK         0.0000 
  23392 H(1)       88.0880  113.8301   17.5368 H         1 UNK         0.0000 
  23393 H(2)       88.1053  111.3793   17.5527 H         1 UNK         0.0000 
  23394 H(3)       84.2457  111.3198   15.6728 H         1 UNK         0.0000 
  23395 H(4)       84.2329  113.7901   15.6585 H         1 UNK         0.0000 
  23396 H(5)       85.3757  109.4372   16.4465 H         1 UNK         0.0000 
  23397 H(6)       85.1399  115.7477   16.3534 H         1 UNK         0.0000 
  23398 H(7)       86.6940  118.1867   17.3976 H         1 UNK         0.0000 
  23399 H(8)       85.6190  117.8218   16.1044 H         1 UNK         0.0000 
  23400 H(9)       87.2963  118.2413   15.8236 H         1 UNK         0.0000 
  23401 O(1)       81.9153  107.3352   22.6641 O.3       1 UNK         0.0000 
  23402 O(2)       83.9131  108.5753   16.6201 O.2       1 UNK         0.0000 
  23403 N(1)       81.7320  108.6259   17.2510 N.am      1 UNK         0.0000 
  23404 C(1)       81.8314  108.2670   18.6139 C.ar      1 UNK         0.0000 
  23405 C(2)       82.9136  107.5811   19.1651 C.ar      1 UNK         0.0000 
  23406 C(3)       82.9206  107.2723   20.5223 C.ar      1 UNK         0.0000 
  23407 C(4)       81.8506  107.6350   21.3362 C.ar      1 UNK         0.0000 
  23408 C(5)       80.7550  108.2934   20.7791 C.ar      1 UNK         0.0000 
  23409 C(6)       80.7497  108.6062   19.4273 C.ar      1 UNK         0.0000 
  23410 C(7)       82.7227  108.7787   16.3575 C.2       1 UNK         0.0000 
  23411 C(8)       82.2819  109.2114   14.9848 C.3       1 UNK         0.0000 
  23412 H(1)       83.7541  107.2954   18.5448 H         1 UNK         0.0000 
  23413 H(2)       83.7714  106.7424   20.9325 H         1 UNK         0.0000 
  23414 H(3)       79.9118  108.5635   21.4028 H         1 UNK         0.0000 
  23415 H(4)       79.8990  109.1193   18.9958 H         1 UNK         0.0000 
  23416 H(5)       81.0418  107.3957   23.0699 H         1 UNK         0.0000 
  23417 H(6)       80.8060  108.8706   16.9335 H         1 UNK         0.0000 
  23418 H(7)       82.3601  108.3869   14.3248 H         1 UNK         0.0000 
  23419 H(8)       81.2851  109.5685   14.9645 H         1 UNK         0.0000 
  23420 H(9)       82.9624  109.9345   14.6168 H         1 UNK         0.0000 
  23421 O(1)       84.6388  118.6567   19.4793 O.3       1 UNK         0.0000 
  23422 O(2)       82.6410  112.4879   19.3635 O.2       1 UNK         0.0000 
  23423 N(1)       84.8221  113.0923   19.5512 N.am      1 UNK         0.0000 
  23424 C(1)       84.7227  114.5007   19.5000 C.ar      1 UNK         0.0000 
  23425 C(2)       83.6405  115.1890   18.9517 C.ar      1 UNK         0.0000 
  23426 C(3)       83.6335  116.5808   18.9482 C.ar      1 UNK         0.0000 
  23427 C(4)       84.7035  117.2954   19.4805 C.ar      1 UNK         0.0000 
  23428 C(5)       85.7991  116.6074   20.0007 C.ar      1 UNK         0.0000 
  23429 C(6)       85.8044  115.2199   20.0094 C.ar      1 UNK         0.0000 
  23430 C(7)       83.8313  112.1870   19.5044 C.2       1 UNK         0.0000 
  23431 C(8)       84.2722  110.7529   19.6254 C.3       1 UNK         0.0000 
  23432 H(1)       82.8000  114.6464   18.5370 H         1 UNK         0.0000 
  23433 H(2)       82.7827  117.0972   18.5211 H         1 UNK         0.0000 
  23434 H(3)       86.6423  117.1567   20.4010 H         1 UNK         0.0000 
  23435 H(4)       86.6550  114.6864   20.4154 H         1 UNK         0.0000 
  23436 H(5)       85.5122  119.0393   19.6273 H         1 UNK         0.0000 
  23437 H(6)       85.7481  112.7288   19.7204 H         1 UNK         0.0000 
  23438 H(7)       84.1939  110.2898   18.6762 H         1 UNK         0.0000 
  23439 H(8)       85.2690  110.6547   19.9694 H         1 UNK         0.0000 
  23440 H(9)       83.5917  110.2352   20.2502 H         1 UNK         0.0000 
  23441 O(1)       80.3049  112.1899   20.5721 O.3       1 UNK         0.0000 
  23442 O(2)       78.3071  110.9499   26.6161 O.2       1 UNK         0.0000 
  23443 N(1)       80.4882  110.8992   25.9852 N.am      1 UNK         0.0000 
  23444 C(1)       80.3888  111.2581   24.6223 C.ar      1 UNK         0.0000 
  23445 C(2)       79.3066  111.9440   24.0711 C.ar      1 UNK         0.0000 
  23446 C(3)       79.2996  112.2528   22.7140 C.ar      1 UNK         0.0000 
  23447 C(4)       80.3696  111.8901   21.9000 C.ar      1 UNK         0.0000 
  23448 C(5)       81.4652  111.2318   22.4571 C.ar      1 UNK         0.0000 
  23449 C(6)       81.4705  110.9189   23.8089 C.ar      1 UNK         0.0000 
  23450 C(7)       79.4975  110.7464   26.8787 C.2       1 UNK         0.0000 
  23451 C(8)       79.9383  110.3138   28.2514 C.3       1 UNK         0.0000 
  23452 H(1)       78.4661  112.2297   24.6914 H         1 UNK         0.0000 
  23453 H(2)       78.4488  112.7827   22.3037 H         1 UNK         0.0000 
  23454 H(3)       82.3084  110.9617   21.8334 H         1 UNK         0.0000 
  23455 H(4)       82.3211  110.4058   24.2404 H         1 UNK         0.0000 
  23456 H(5)       81.1783  112.1294   20.1663 H         1 UNK         0.0000 
  23457 H(6)       81.4142  110.6545   26.3027 H         1 UNK         0.0000 
  23458 H(7)       79.8600  111.1382   28.9114 H         1 UNK         0.0000 
  23459 H(8)       80.9351  109.9566   28.2717 H         1 UNK         0.0000 
  23460 H(9)       79.2578  109.5907   28.6194 H         1 UNK         0.0000 
  23461 O(1)       79.1722  115.5508   23.7569 O.3       1 UNK         0.0000 
  23462 O(2)       81.1700  121.7196   23.8727 O.2       1 UNK         0.0000 
  23463 N(1)       78.9888  121.1152   23.6850 N.am      1 UNK         0.0000 
  23464 C(1)       79.0883  119.7067   23.7362 C.ar      1 UNK         0.0000 
  23465 C(2)       80.1705  119.0185   24.2845 C.ar      1 UNK         0.0000 
  23466 C(3)       80.1775  117.6267   24.2881 C.ar      1 UNK         0.0000 
  23467 C(4)       79.1075  116.9121   23.7557 C.ar      1 UNK         0.0000 
  23468 C(5)       78.0119  117.6000   23.2355 C.ar      1 UNK         0.0000 
  23469 C(6)       78.0066  118.9876   23.2268 C.ar      1 UNK         0.0000 
  23470 C(7)       79.9796  122.0205   23.7318 C.2       1 UNK         0.0000 
  23471 C(8)       79.5388  123.4546   23.6108 C.3       1 UNK         0.0000 
  23472 H(1)       81.0110  119.5610   24.6992 H         1 UNK         0.0000 
  23473 H(2)       81.0283  117.1102   24.7151 H         1 UNK         0.0000 
  23474 H(3)       77.1687  117.0508   22.8352 H         1 UNK         0.0000 
  23475 H(4)       77.1559  119.5211   22.8209 H         1 UNK         0.0000 
  23476 H(5)       78.2987  115.1682   23.6089 H         1 UNK         0.0000 
  23477 H(6)       78.0629  121.4786   23.5158 H         1 UNK         0.0000 
  23478 H(7)       79.6170  123.9177   24.5600 H         1 UNK         0.0000 
  23479 H(8)       78.5420  123.5527   23.2668 H         1 UNK         0.0000 
  23480 H(9)       80.2193  123.9723   22.9860 H         1 UNK         0.0000 
  23481 O(1)       83.5061  110.5556    8.3393 O.3       1 UNK         0.0000 
  23482 O(2)       85.5039  111.7957    2.2953 O.2       1 UNK         0.0000 
  23483 N(1)       83.3227  111.8463    2.9262 N.am      1 UNK         0.0000 
  23484 C(1)       83.4222  111.4874    4.2891 C.ar      1 UNK         0.0000 
  23485 C(2)       84.5043  110.8015    4.8403 C.ar      1 UNK         0.0000 
  23486 C(3)       84.5114  110.4927    6.1975 C.ar      1 UNK         0.0000 
  23487 C(4)       83.4414  110.8554    7.0114 C.ar      1 UNK         0.0000 
  23488 C(5)       82.3457  111.5138    6.4543 C.ar      1 UNK         0.0000 
  23489 C(6)       82.3404  111.8266    5.1025 C.ar      1 UNK         0.0000 
  23490 C(7)       84.3135  111.9991    2.0327 C.2       1 UNK         0.0000 
  23491 C(8)       83.8727  112.4318    0.6600 C.3       1 UNK         0.0000 
  23492 H(1)       85.3449  110.5158    4.2200 H         1 UNK         0.0000 
  23493 H(2)       85.3622  109.9628    6.6077 H         1 UNK         0.0000 
  23494 H(3)       81.5026  111.7839    7.0780 H         1 UNK         0.0000 
  23495 H(4)       81.4898  112.3397    4.6710 H         1 UNK         0.0000 
  23496 H(5)       82.6326  110.6161    8.7451 H         1 UNK         0.0000 
  23497 H(6)       82.3968  112.0910    2.6087 H         1 UNK         0.0000 
  23498 H(7)       83.9509  111.6073    0.0000 H         1 UNK         0.0000 
  23499 H(8)       82.8759  112.7889    0.6397 H         1 UNK         0.0000 
  23500 H(9)       84.5531  113.1549    0.2920 H         1 UNK         0.0000 
  23501 O(1)       86.2296  121.8771    5.1545 O.3       1 UNK         0.0000 
  23502 O(2)       84.2318  115.7083    5.0387 O.2       1 UNK         0.0000 
  23503 N(1)       86.4129  116.3127    5.2264 N.am      1 UNK         0.0000 
  23504 C(1)       86.3135  117.7211    5.1752 C.ar      1 UNK         0.0000 
  23505 C(2)       85.2313  118.4094    4.6269 C.ar      1 UNK         0.0000 
  23506 C(3)       85.2243  119.8012    4.6234 C.ar      1 UNK         0.0000 
  23507 C(4)       86.2943  120.5158    5.1557 C.ar      1 UNK         0.0000 
  23508 C(5)       87.3899  119.8278    5.6759 C.ar      1 UNK         0.0000 
  23509 C(6)       87.3952  118.4403    5.6846 C.ar      1 UNK         0.0000 
  23510 C(7)       85.4221  115.4074    5.1796 C.2       1 UNK         0.0000 
  23511 C(8)       85.8630  113.9733    5.3006 C.3       1 UNK         0.0000 
  23512 H(1)       84.3908  117.8668    4.2122 H         1 UNK         0.0000 
  23513 H(2)       84.3735  120.3176    4.1963 H         1 UNK         0.0000 
  23514 H(3)       88.2331  120.3771    6.0762 H         1 UNK         0.0000 
  23515 H(4)       88.2458  117.9068    6.0906 H         1 UNK         0.0000 
  23516 H(5)       87.1030  122.2597    5.3025 H         1 UNK         0.0000 
  23517 H(6)       87.3389  115.9492    5.3956 H         1 UNK         0.0000 
  23518 H(7)       85.7847  113.5102    4.3514 H         1 UNK         0.0000 
  23519 H(8)       86.8598  113.8751    5.6446 H         1 UNK         0.0000 
  23520 H(9)       85.1825  113.4556    5.9254 H         1 UNK         0.0000 
  23521 O(1)       83.4865  130.0927    6.2473 O.3       1 UNK         0.0000 
  23522 O(2)       81.4887  128.8526   12.2913 O.2       1 UNK         0.0000 
  23523 N(1)       83.6698  128.8020   11.6604 N.am      1 UNK         0.0000 
  23524 C(1)       83.5703  129.1609   10.2975 C.ar      1 UNK         0.0000 
  23525 C(2)       82.4882  129.8468    9.7463 C.ar      1 UNK         0.0000 
  23526 C(3)       82.4812  130.1555    8.3892 C.ar      1 UNK         0.0000 
  23527 C(4)       83.5512  129.7929    7.5752 C.ar      1 UNK         0.0000 
  23528 C(5)       84.6468  129.1345    8.1323 C.ar      1 UNK         0.0000 
  23529 C(6)       84.6521  128.8216    9.4841 C.ar      1 UNK         0.0000 
  23530 C(7)       82.6790  128.6491   12.5539 C.2       1 UNK         0.0000 
  23531 C(8)       83.1199  128.2165   13.9266 C.3       1 UNK         0.0000 
  23532 H(1)       81.6477  130.1324   10.3666 H         1 UNK         0.0000 
  23533 H(2)       81.6303  130.6854    7.9789 H         1 UNK         0.0000 
  23534 H(3)       85.4900  128.8644    7.5086 H         1 UNK         0.0000 
  23535 H(4)       85.5027  128.3085    9.9156 H         1 UNK         0.0000 
  23536 H(5)       84.3599  130.0322    5.8415 H         1 UNK         0.0000 
  23537 H(6)       84.5958  128.5572   11.9779 H         1 UNK         0.0000 
  23538 H(7)       83.0416  129.0410   14.5866 H         1 UNK         0.0000 
  23539 H(8)       84.1167  127.8594   13.9469 H         1 UNK         0.0000 
  23540 H(9)       82.4394  127.4934   14.2946 H         1 UNK         0.0000 
  23541 O(1)       87.8400  118.7712    9.4321 O.3       1 UNK         0.0000 
  23542 O(2)       89.8378  124.9400    9.5479 O.2       1 UNK         0.0000 
  23543 N(1)       87.6566  124.3356    9.3602 N.am      1 UNK         0.0000 
  23544 C(1)       87.7561  122.9271    9.4114 C.ar      1 UNK         0.0000 
  23545 C(2)       88.8382  122.2389    9.9597 C.ar      1 UNK         0.0000 
  23546 C(3)       88.8453  120.8471    9.9633 C.ar      1 UNK         0.0000 
  23547 C(4)       87.7752  120.1325    9.4309 C.ar      1 UNK         0.0000 
  23548 C(5)       86.6796  120.8204    8.9107 C.ar      1 UNK         0.0000 
  23549 C(6)       86.6743  122.2080    8.9020 C.ar      1 UNK         0.0000 
  23550 C(7)       88.6474  125.2409    9.4070 C.2       1 UNK         0.0000 
  23551 C(8)       88.2066  126.6750    9.2860 C.3       1 UNK         0.0000 
  23552 H(1)       89.6788  122.7814   10.3744 H         1 UNK         0.0000 
  23553 H(2)       89.6961  120.3306   10.3903 H         1 UNK         0.0000 
  23554 H(3)       85.8365  120.2712    8.5104 H         1 UNK         0.0000 
  23555 H(4)       85.8237  122.7415    8.4961 H         1 UNK         0.0000 
  23556 H(5)       86.9665  118.3886    9.2841 H         1 UNK         0.0000 
  23557 H(6)       86.7307  124.6990    9.1910 H         1 UNK         0.0000 
  23558 H(7)       88.2848  127.1381   10.2352 H         1 UNK         0.0000 
  23559 H(8)       87.2098  126.7731    8.9420 H         1 UNK         0.0000 
  23560 H(9)       88.8870  127.1927    8.6612 H         1 UNK         0.0000 
  23561 O(1)       78.0199  130.9689   15.5017 O.3       1 UNK         0.0000 
  23562 O(2)       80.0177  132.2090    9.4577 O.2       1 UNK         0.0000 
  23563 N(1)       77.8365  132.2596   10.0886 N.am      1 UNK         0.0000 
  23564 C(1)       77.9360  131.9007   11.4515 C.ar      1 UNK         0.0000 
  23565 C(2)       79.0181  131.2148   12.0027 C.ar      1 UNK         0.0000 
  23566 C(3)       79.0252  130.9060   13.3599 C.ar      1 UNK         0.0000 
  23567 C(4)       77.9551  131.2687   14.1738 C.ar      1 UNK         0.0000 
  23568 C(5)       76.8595  131.9271   13.6167 C.ar      1 UNK         0.0000 
  23569 C(6)       76.8542  132.2399   12.2649 C.ar      1 UNK         0.0000 
  23570 C(7)       78.8273  132.4124    9.1951 C.2       1 UNK         0.0000 
  23571 C(8)       78.3864  132.8451    7.8224 C.3       1 UNK         0.0000 
  23572 H(1)       79.8587  130.9291   11.3824 H         1 UNK         0.0000 
  23573 H(2)       79.8760  130.3761   13.7701 H         1 UNK         0.0000 
  23574 H(3)       76.0164  132.1972   14.2404 H         1 UNK         0.0000 
  23575 H(4)       76.0036  132.7530   11.8334 H         1 UNK         0.0000 
  23576 H(5)       77.1464  131.0294   15.9075 H         1 UNK         0.0000 
  23577 H(6)       76.9106  132.5043    9.7711 H         1 UNK         0.0000 
  23578 H(7)       78.4647  132.0206    7.1624 H         1 UNK         0.0000 
  23579 H(8)       77.3897  133.2022    7.8021 H         1 UNK         0.0000 
  23580 H(9)       79.0669  133.5682    7.4544 H         1 UNK         0.0000 
  23581 O(1)       79.1526  127.6080   12.3169 O.3       1 UNK         0.0000 
  23582 O(2)       77.1548  121.4393   12.2011 O.2       1 UNK         0.0000 
  23583 N(1)       79.3359  122.0437   12.3888 N.am      1 UNK         0.0000 
  23584 C(1)       79.2365  123.4521   12.3376 C.ar      1 UNK         0.0000 
  23585 C(2)       78.1543  124.1403   11.7893 C.ar      1 UNK         0.0000 
  23586 C(3)       78.1473  125.5321   11.7858 C.ar      1 UNK         0.0000 
  23587 C(4)       79.2173  126.2467   12.3181 C.ar      1 UNK         0.0000 
  23588 C(5)       80.3129  125.5588   12.8383 C.ar      1 UNK         0.0000 
  23589 C(6)       80.3182  124.1713   12.8470 C.ar      1 UNK         0.0000 
  23590 C(7)       78.3451  121.1383   12.3420 C.2       1 UNK         0.0000 
  23591 C(8)       78.7860  119.7042   12.4630 C.3       1 UNK         0.0000 
  23592 H(1)       77.3138  123.5978   11.3746 H         1 UNK         0.0000 
  23593 H(2)       77.2965  126.0486   11.3587 H         1 UNK         0.0000 
  23594 H(3)       81.1561  126.1081   13.2386 H         1 UNK         0.0000 
  23595 H(4)       81.1688  123.6378   13.2530 H         1 UNK         0.0000 
  23596 H(5)       80.0260  127.9906   12.4649 H         1 UNK         0.0000 
  23597 H(6)       80.2619  121.6802   12.5580 H         1 UNK         0.0000 
  23598 H(7)       78.7077  119.2411   11.5138 H         1 UNK         0.0000 
  23599 H(8)       79.7828  119.6061   12.8070 H         1 UNK         0.0000 
  23600 H(9)       78.1055  119.1866   13.0878 H         1 UNK         0.0000 
  23601 O(1)       83.4865  135.8236   13.4097 O.3       1 UNK         0.0000 
  23602 O(2)       81.4887  134.5836   19.4537 O.2       1 UNK         0.0000 
  23603 N(1)       83.6698  134.5329   18.8228 N.am      1 UNK         0.0000 
  23604 C(1)       83.5703  134.8918   17.4599 C.ar      1 UNK         0.0000 
  23605 C(2)       82.4882  135.5777   16.9087 C.ar      1 UNK         0.0000 
  23606 C(3)       82.4812  135.8865   15.5516 C.ar      1 UNK         0.0000 
  23607 C(4)       83.5512  135.5238   14.7376 C.ar      1 UNK         0.0000 
  23608 C(5)       84.6468  134.8654   15.2947 C.ar      1 UNK         0.0000 
  23609 C(6)       84.6521  134.5526   16.6465 C.ar      1 UNK         0.0000 
  23610 C(7)       82.6790  134.3801   19.7163 C.2       1 UNK         0.0000 
  23611 C(8)       83.1199  133.9475   21.0890 C.3       1 UNK         0.0000 
  23612 H(1)       81.6477  135.8634   17.5290 H         1 UNK         0.0000 
  23613 H(2)       81.6303  136.4164   15.1413 H         1 UNK         0.0000 
  23614 H(3)       85.4900  134.5954   14.6710 H         1 UNK         0.0000 
  23615 H(4)       85.5027  134.0395   17.0780 H         1 UNK         0.0000 
  23616 H(5)       84.3599  135.7631   13.0039 H         1 UNK         0.0000 
  23617 H(6)       84.5958  134.2882   19.1403 H         1 UNK         0.0000 
  23618 H(7)       83.0416  134.7719   21.7490 H         1 UNK         0.0000 
  23619 H(8)       84.1167  133.5903   21.1093 H         1 UNK         0.0000 
  23620 H(9)       82.4394  133.2244   21.4570 H         1 UNK         0.0000 
  23621 O(1)       87.8400  124.5021   16.5945 O.3       1 UNK         0.0000 
  23622 O(2)       89.8378  130.6709   16.7103 O.2       1 UNK         0.0000 
  23623 N(1)       87.6566  130.0665   16.5226 N.am      1 UNK         0.0000 
  23624 C(1)       87.7561  128.6581   16.5738 C.ar      1 UNK         0.0000 
  23625 C(2)       88.8382  127.9699   17.1221 C.ar      1 UNK         0.0000 
  23626 C(3)       88.8453  126.5781   17.1257 C.ar      1 UNK         0.0000 
  23627 C(4)       87.7752  125.8635   16.5933 C.ar      1 UNK         0.0000 
  23628 C(5)       86.6796  126.5514   16.0731 C.ar      1 UNK         0.0000 
  23629 C(6)       86.6743  127.9389   16.0644 C.ar      1 UNK         0.0000 
  23630 C(7)       88.6474  130.9718   16.5694 C.2       1 UNK         0.0000 
  23631 C(8)       88.2066  132.4060   16.4484 C.3       1 UNK         0.0000 
  23632 H(1)       89.6788  128.5124   17.5368 H         1 UNK         0.0000 
  23633 H(2)       89.6961  126.0616   17.5527 H         1 UNK         0.0000 
  23634 H(3)       85.8365  126.0021   15.6728 H         1 UNK         0.0000 
  23635 H(4)       85.8237  128.4724   15.6585 H         1 UNK         0.0000 
  23636 H(5)       86.9665  124.1195   16.4465 H         1 UNK         0.0000 
  23637 H(6)       86.7307  130.4300   16.3534 H         1 UNK         0.0000 
  23638 H(7)       88.2848  132.8691   17.3976 H         1 UNK         0.0000 
  23639 H(8)       87.2098  132.5041   16.1044 H         1 UNK         0.0000 
  23640 H(9)       88.8870  132.9236   15.8236 H         1 UNK         0.0000 
  23641 O(1)       83.5061  122.0175   22.6641 O.3       1 UNK         0.0000 
  23642 O(2)       85.5039  123.2576   16.6201 O.2       1 UNK         0.0000 
  23643 N(1)       83.3227  123.3082   17.2510 N.am      1 UNK         0.0000 
  23644 C(1)       83.4222  122.9493   18.6139 C.ar      1 UNK         0.0000 
  23645 C(2)       84.5043  122.2634   19.1651 C.ar      1 UNK         0.0000 
  23646 C(3)       84.5114  121.9547   20.5223 C.ar      1 UNK         0.0000 
  23647 C(4)       83.4414  122.3173   21.3362 C.ar      1 UNK         0.0000 
  23648 C(5)       82.3457  122.9757   20.7791 C.ar      1 UNK         0.0000 
  23649 C(6)       82.3404  123.2886   19.4273 C.ar      1 UNK         0.0000 
  23650 C(7)       84.3135  123.4611   16.3575 C.2       1 UNK         0.0000 
  23651 C(8)       83.8727  123.8937   14.9848 C.3       1 UNK         0.0000 
  23652 H(1)       85.3449  121.9778   18.5448 H         1 UNK         0.0000 
  23653 H(2)       85.3622  121.4248   20.9325 H         1 UNK         0.0000 
  23654 H(3)       81.5026  123.2458   21.4028 H         1 UNK         0.0000 
  23655 H(4)       81.4898  123.8016   18.9958 H         1 UNK         0.0000 
  23656 H(5)       82.6326  122.0780   23.0699 H         1 UNK         0.0000 
  23657 H(6)       82.3968  123.5530   16.9335 H         1 UNK         0.0000 
  23658 H(7)       83.9509  123.0692   14.3248 H         1 UNK         0.0000 
  23659 H(8)       82.8759  124.2508   14.9645 H         1 UNK         0.0000 
  23660 H(9)       84.5531  124.6168   14.6168 H         1 UNK         0.0000 
  23661 O(1)       86.2296  133.3390   19.4793 O.3       1 UNK         0.0000 
  23662 O(2)       84.2318  127.1702   19.3635 O.2       1 UNK         0.0000 
  23663 N(1)       86.4129  127.7746   19.5512 N.am      1 UNK         0.0000 
  23664 C(1)       86.3135  129.1831   19.5000 C.ar      1 UNK         0.0000 
  23665 C(2)       85.2313  129.8713   18.9517 C.ar      1 UNK         0.0000 
  23666 C(3)       85.2243  131.2631   18.9482 C.ar      1 UNK         0.0000 
  23667 C(4)       86.2943  131.9777   19.4805 C.ar      1 UNK         0.0000 
  23668 C(5)       87.3899  131.2898   20.0007 C.ar      1 UNK         0.0000 
  23669 C(6)       87.3952  129.9022   20.0094 C.ar      1 UNK         0.0000 
  23670 C(7)       85.4221  126.8693   19.5044 C.2       1 UNK         0.0000 
  23671 C(8)       85.8630  125.4352   19.6254 C.3       1 UNK         0.0000 
  23672 H(1)       84.3908  129.3287   18.5370 H         1 UNK         0.0000 
  23673 H(2)       84.3735  131.7796   18.5211 H         1 UNK         0.0000 
  23674 H(3)       88.2331  131.8390   20.4010 H         1 UNK         0.0000 
  23675 H(4)       88.2458  129.3687   20.4154 H         1 UNK         0.0000 
  23676 H(5)       87.1030  133.7216   19.6273 H         1 UNK         0.0000 
  23677 H(6)       87.3389  127.4112   19.7204 H         1 UNK         0.0000 
  23678 H(7)       85.7847  124.9721   18.6762 H         1 UNK         0.0000 
  23679 H(8)       86.8598  125.3370   19.9694 H         1 UNK         0.0000 
  23680 H(9)       85.1825  124.9175   20.2502 H         1 UNK         0.0000 
  23681 O(1)       81.8957  126.8723   20.5721 O.3       1 UNK         0.0000 
  23682 O(2)       79.8979  125.6322   26.6161 O.2       1 UNK         0.0000 
  23683 N(1)       82.0790  125.5816   25.9852 N.am      1 UNK         0.0000 
  23684 C(1)       81.9796  125.9405   24.6223 C.ar      1 UNK         0.0000 
  23685 C(2)       80.8974  126.6264   24.0711 C.ar      1 UNK         0.0000 
  23686 C(3)       80.8904  126.9351   22.7140 C.ar      1 UNK         0.0000 
  23687 C(4)       81.9604  126.5725   21.9000 C.ar      1 UNK         0.0000 
  23688 C(5)       83.0560  125.9141   22.4571 C.ar      1 UNK         0.0000 
  23689 C(6)       83.0613  125.6012   23.8089 C.ar      1 UNK         0.0000 
  23690 C(7)       81.0882  125.4287   26.8787 C.2       1 UNK         0.0000 
  23691 C(8)       81.5291  124.9961   28.2514 C.3       1 UNK         0.0000 
  23692 H(1)       80.0569  126.9120   24.6914 H         1 UNK         0.0000 
  23693 H(2)       80.0396  127.4650   22.3037 H         1 UNK         0.0000 
  23694 H(3)       83.8992  125.6440   21.8334 H         1 UNK         0.0000 
  23695 H(4)       83.9119  125.0881   24.2404 H         1 UNK         0.0000 
  23696 H(5)       82.7691  126.8118   20.1663 H         1 UNK         0.0000 
  23697 H(6)       83.0050  125.3368   26.3027 H         1 UNK         0.0000 
  23698 H(7)       81.4508  125.8206   28.9114 H         1 UNK         0.0000 
  23699 H(8)       82.5259  124.6390   28.2717 H         1 UNK         0.0000 
  23700 H(9)       80.8486  124.2730   28.6194 H         1 UNK         0.0000 
  23701 O(1)       80.7630  130.2331   23.7569 O.3       1 UNK         0.0000 
  23702 O(2)       82.7608  136.4019   23.8727 O.2       1 UNK         0.0000 
  23703 N(1)       80.5796  135.7975   23.6850 N.am      1 UNK         0.0000 
  23704 C(1)       80.6791  134.3890   23.7362 C.ar      1 UNK         0.0000 
  23705 C(2)       81.7612  133.7008   24.2845 C.ar      1 UNK         0.0000 
  23706 C(3)       81.7683  132.3090   24.2881 C.ar      1 UNK         0.0000 
  23707 C(4)       80.6982  131.5944   23.7557 C.ar      1 UNK         0.0000 
  23708 C(5)       79.6026  132.2823   23.2355 C.ar      1 UNK         0.0000 
  23709 C(6)       79.5973  133.6699   23.2268 C.ar      1 UNK         0.0000 
  23710 C(7)       81.5704  136.7028   23.7318 C.2       1 UNK         0.0000 
  23711 C(8)       81.1296  138.1369   23.6108 C.3       1 UNK         0.0000 
  23712 H(1)       82.6018  134.2434   24.6992 H         1 UNK         0.0000 
  23713 H(2)       82.6191  131.7926   24.7151 H         1 UNK         0.0000 
  23714 H(3)       78.7595  131.7331   22.8352 H         1 UNK         0.0000 
  23715 H(4)       78.7467  134.2034   22.8209 H         1 UNK         0.0000 
  23716 H(5)       79.8895  129.8505   23.6089 H         1 UNK         0.0000 
  23717 H(6)       79.6537  136.1610   23.5158 H         1 UNK         0.0000 
  23718 H(7)       81.2078  138.6000   24.5600 H         1 UNK         0.0000 
  23719 H(8)       80.1328  138.2351   23.2668 H         1 UNK         0.0000 
  23720 H(9)       81.8100  138.6546   22.9860 H         1 UNK         0.0000 
  23721 O(1)       85.0969  125.2379    8.3393 O.3       1 UNK         0.0000 
  23722 O(2)       87.0947  126.4780    2.2953 O.2       1 UNK         0.0000 
  23723 N(1)       84.9135  126.5286    2.9262 N.am      1 UNK         0.0000 
  23724 C(1)       85.0130  126.1697    4.2891 C.ar      1 UNK         0.0000 
  23725 C(2)       86.0951  125.4838    4.8403 C.ar      1 UNK         0.0000 
  23726 C(3)       86.1022  125.1751    6.1975 C.ar      1 UNK         0.0000 
  23727 C(4)       85.0321  125.5377    7.0114 C.ar      1 UNK         0.0000 
  23728 C(5)       83.9365  126.1961    6.4543 C.ar      1 UNK         0.0000 
  23729 C(6)       83.9312  126.5090    5.1025 C.ar      1 UNK         0.0000 
  23730 C(7)       85.9043  126.6815    2.0327 C.2       1 UNK         0.0000 
  23731 C(8)       85.4634  127.1141    0.6600 C.3       1 UNK         0.0000 
  23732 H(1)       86.9357  125.1982    4.2200 H         1 UNK         0.0000 
  23733 H(2)       86.9530  124.6452    6.6077 H         1 UNK         0.0000 
  23734 H(3)       83.0934  126.4662    7.0780 H         1 UNK         0.0000 
  23735 H(4)       83.0806  127.0220    4.6710 H         1 UNK         0.0000 
  23736 H(5)       84.2234  125.2984    8.7451 H         1 UNK         0.0000 
  23737 H(6)       83.9876  126.7734    2.6087 H         1 UNK         0.0000 
  23738 H(7)       85.5417  126.2896    0.0000 H         1 UNK         0.0000 
  23739 H(8)       84.4667  127.4712    0.6397 H         1 UNK         0.0000 
  23740 H(9)       86.1439  127.8372    0.2920 H         1 UNK         0.0000 
  23741 O(1)       87.8204  136.5594    5.1545 O.3       1 UNK         0.0000 
  23742 O(2)       85.8225  130.3906    5.0387 O.2       1 UNK         0.0000 
  23743 N(1)       88.0037  130.9950    5.2264 N.am      1 UNK         0.0000 
  23744 C(1)       87.9042  132.4035    5.1752 C.ar      1 UNK         0.0000 
  23745 C(2)       86.8221  133.0917    4.6269 C.ar      1 UNK         0.0000 
  23746 C(3)       86.8150  134.4835    4.6234 C.ar      1 UNK         0.0000 
  23747 C(4)       87.8851  135.1981    5.1557 C.ar      1 UNK         0.0000 
  23748 C(5)       88.9807  134.5102    5.6759 C.ar      1 UNK         0.0000 
  23749 C(6)       88.9860  133.1226    5.6846 C.ar      1 UNK         0.0000 
  23750 C(7)       87.0129  130.0897    5.1796 C.2       1 UNK         0.0000 
  23751 C(8)       87.4538  128.6556    5.3006 C.3       1 UNK         0.0000 
  23752 H(1)       85.9815  132.5491    4.2122 H         1 UNK         0.0000 
  23753 H(2)       85.9642  135.0000    4.1963 H         1 UNK         0.0000 
  23754 H(3)       89.8238  135.0594    6.0762 H         1 UNK         0.0000 
  23755 H(4)       89.8366  132.5891    6.0906 H         1 UNK         0.0000 
  23756 H(5)       88.6938  136.9420    5.3025 H         1 UNK         0.0000 
  23757 H(6)       88.9297  130.6316    5.3956 H         1 UNK         0.0000 
  23758 H(7)       87.3755  128.1925    4.3514 H         1 UNK         0.0000 
  23759 H(8)       88.4505  128.5574    5.6446 H         1 UNK         0.0000 
  23760 H(9)       86.7733  128.1379    5.9254 H         1 UNK         0.0000 
  23761 O(1)       85.0773  144.7750    6.2473 O.3       1 UNK         0.0000 
  23762 O(2)       83.0794  143.5349   12.2913 O.2       1 UNK         0.0000 
  23763 N(1)       85.2606  143.4843   11.6604 N.am      1 UNK         0.0000 
  23764 C(1)       85.1611  143.8432   10.2975 C.ar      1 UNK         0.0000 
  23765 C(2)       84.0790  144.5291    9.7463 C.ar      1 UNK         0.0000 
  23766 C(3)       84.0719  144.8378    8.3892 C.ar      1 UNK         0.0000 
  23767 C(4)       85.1420  144.4752    7.5752 C.ar      1 UNK         0.0000 
  23768 C(5)       86.2376  143.8168    8.1323 C.ar      1 UNK         0.0000 
  23769 C(6)       86.2429  143.5039    9.4841 C.ar      1 UNK         0.0000 
  23770 C(7)       84.2698  143.3315   12.5539 C.2       1 UNK         0.0000 
  23771 C(8)       84.7107  142.8988   13.9266 C.3       1 UNK         0.0000 
  23772 H(1)       83.2384  144.8147   10.3666 H         1 UNK         0.0000 
  23773 H(2)       83.2211  145.3678    7.9789 H         1 UNK         0.0000 
  23774 H(3)       87.0807  143.5467    7.5086 H         1 UNK         0.0000 
  23775 H(4)       87.0935  142.9909    9.9156 H         1 UNK         0.0000 
  23776 H(5)       85.9507  144.7145    5.8415 H         1 UNK         0.0000 
  23777 H(6)       86.1865  143.2395   11.9779 H         1 UNK         0.0000 
  23778 H(7)       84.6324  143.7233   14.5866 H         1 UNK         0.0000 
  23779 H(8)       85.7074  142.5417   13.9469 H         1 UNK         0.0000 
  23780 H(9)       84.0302  142.1757   14.2946 H         1 UNK         0.0000 
  23781 O(1)       89.4307  133.4535    9.4321 O.3       1 UNK         0.0000 
  23782 O(2)       91.4286  139.6223    9.5479 O.2       1 UNK         0.0000 
  23783 N(1)       89.2474  139.0179    9.3602 N.am      1 UNK         0.0000 
  23784 C(1)       89.3469  137.6094    9.4114 C.ar      1 UNK         0.0000 
  23785 C(2)       90.4290  136.9212    9.9597 C.ar      1 UNK         0.0000 
  23786 C(3)       90.4361  135.5294    9.9633 C.ar      1 UNK         0.0000 
  23787 C(4)       89.3660  134.8148    9.4309 C.ar      1 UNK         0.0000 
  23788 C(5)       88.2704  135.5027    8.9107 C.ar      1 UNK         0.0000 
  23789 C(6)       88.2651  136.8903    8.9020 C.ar      1 UNK         0.0000 
  23790 C(7)       90.2382  139.9232    9.4070 C.2       1 UNK         0.0000 
  23791 C(8)       89.7973  141.3573    9.2860 C.3       1 UNK         0.0000 
  23792 H(1)       91.2696  137.4638   10.3744 H         1 UNK         0.0000 
  23793 H(2)       91.2869  135.0130   10.3903 H         1 UNK         0.0000 
  23794 H(3)       87.4273  134.9535    8.5104 H         1 UNK         0.0000 
  23795 H(4)       87.4145  137.4238    8.4961 H         1 UNK         0.0000 
  23796 H(5)       88.5573  133.0709    9.2841 H         1 UNK         0.0000 
  23797 H(6)       88.3215  139.3814    9.1910 H         1 UNK         0.0000 
  23798 H(7)       89.8756  141.8204   10.2352 H         1 UNK         0.0000 
  23799 H(8)       88.8006  141.4555    8.9420 H         1 UNK         0.0000 
  23800 H(9)       90.4778  141.8750    8.6612 H         1 UNK         0.0000 
  23801 O(1)       79.6106  145.6512   15.5017 O.3       1 UNK         0.0000 
  23802 O(2)       81.6085  146.8913    9.4577 O.2       1 UNK         0.0000 
  23803 N(1)       79.4273  146.9419   10.0886 N.am      1 UNK         0.0000 
  23804 C(1)       79.5268  146.5830   11.4515 C.ar      1 UNK         0.0000 
  23805 C(2)       80.6089  145.8971   12.0027 C.ar      1 UNK         0.0000 
  23806 C(3)       80.6160  145.5884   13.3599 C.ar      1 UNK         0.0000 
  23807 C(4)       79.5459  145.9510   14.1738 C.ar      1 UNK         0.0000 
  23808 C(5)       78.4503  146.6094   13.6167 C.ar      1 UNK         0.0000 
  23809 C(6)       78.4450  146.9223   12.2649 C.ar      1 UNK         0.0000 
  23810 C(7)       80.4181  147.0948    9.1951 C.2       1 UNK         0.0000 
  23811 C(8)       79.9772  147.5274    7.8224 C.3       1 UNK         0.0000 
  23812 H(1)       81.4495  145.6115   11.3824 H         1 UNK         0.0000 
  23813 H(2)       81.4668  145.0585   13.7701 H         1 UNK         0.0000 
  23814 H(3)       77.6071  146.8795   14.2404 H         1 UNK         0.0000 
  23815 H(4)       77.5944  147.4353   11.8334 H         1 UNK         0.0000 
  23816 H(5)       78.7372  145.7117   15.9075 H         1 UNK         0.0000 
  23817 H(6)       78.5013  147.1867    9.7711 H         1 UNK         0.0000 
  23818 H(7)       80.0555  146.7029    7.1624 H         1 UNK         0.0000 
  23819 H(8)       78.9804  147.8845    7.8021 H         1 UNK         0.0000 
  23820 H(9)       80.6577  148.2505    7.4544 H         1 UNK         0.0000 
  23821 O(1)       80.7434  142.2904   12.3169 O.3       1 UNK         0.0000 
  23822 O(2)       78.7455  136.1216   12.2011 O.2       1 UNK         0.0000 
  23823 N(1)       80.9267  136.7260   12.3888 N.am      1 UNK         0.0000 
  23824 C(1)       80.8272  138.1344   12.3376 C.ar      1 UNK         0.0000 
  23825 C(2)       79.7451  138.8226   11.7893 C.ar      1 UNK         0.0000 
  23826 C(3)       79.7380  140.2145   11.7858 C.ar      1 UNK         0.0000 
  23827 C(4)       80.8081  140.9291   12.3181 C.ar      1 UNK         0.0000 
  23828 C(5)       81.9037  140.2411   12.8383 C.ar      1 UNK         0.0000 
  23829 C(6)       81.9090  138.8536   12.8470 C.ar      1 UNK         0.0000 
  23830 C(7)       79.9359  135.8207   12.3420 C.2       1 UNK         0.0000 
  23831 C(8)       80.3768  134.3866   12.4630 C.3       1 UNK         0.0000 
  23832 H(1)       78.9045  138.2801   11.3746 H         1 UNK         0.0000 
  23833 H(2)       78.8872  140.7309   11.3587 H         1 UNK         0.0000 
  23834 H(3)       82.7468  140.7904   13.2386 H         1 UNK         0.0000 
  23835 H(4)       82.7596  138.3201   13.2530 H         1 UNK         0.0000 
  23836 H(5)       81.6168  142.6730   12.4649 H         1 UNK         0.0000 
  23837 H(6)       81.8527  136.3625   12.5580 H         1 UNK         0.0000 
  23838 H(7)       80.2985  133.9235   11.5138 H         1 UNK         0.0000 
  23839 H(8)       81.3735  134.2884   12.8070 H         1 UNK         0.0000 
  23840 H(9)       79.6963  133.8689   13.0878 H         1 UNK         0.0000 
  23841 O(1)       85.0773  150.5060   13.4097 O.3       1 UNK         0.0000 
  23842 O(2)       83.0794  149.2659   19.4537 O.2       1 UNK         0.0000 
  23843 N(1)       85.2606  149.2153   18.8228 N.am      1 UNK         0.0000 
  23844 C(1)       85.1611  149.5742   17.4599 C.ar      1 UNK         0.0000 
  23845 C(2)       84.0790  150.2601   16.9087 C.ar      1 UNK         0.0000 
  23846 C(3)       84.0719  150.5688   15.5516 C.ar      1 UNK         0.0000 
  23847 C(4)       85.1420  150.2062   14.7376 C.ar      1 UNK         0.0000 
  23848 C(5)       86.2376  149.5478   15.2947 C.ar      1 UNK         0.0000 
  23849 C(6)       86.2429  149.2349   16.6465 C.ar      1 UNK         0.0000 
  23850 C(7)       84.2698  149.0624   19.7163 C.2       1 UNK         0.0000 
  23851 C(8)       84.7107  148.6298   21.0890 C.3       1 UNK         0.0000 
  23852 H(1)       83.2384  150.5457   17.5290 H         1 UNK         0.0000 
  23853 H(2)       83.2211  151.0987   15.1413 H         1 UNK         0.0000 
  23854 H(3)       87.0807  149.2777   14.6710 H         1 UNK         0.0000 
  23855 H(4)       87.0935  148.7218   17.0780 H         1 UNK         0.0000 
  23856 H(5)       85.9507  150.4455   13.0039 H         1 UNK         0.0000 
  23857 H(6)       86.1865  148.9705   19.1403 H         1 UNK         0.0000 
  23858 H(7)       84.6324  149.4542   21.7490 H         1 UNK         0.0000 
  23859 H(8)       85.7074  148.2727   21.1093 H         1 UNK         0.0000 
  23860 H(9)       84.0302  147.9067   21.4570 H         1 UNK         0.0000 
  23861 O(1)       89.4307  139.1845   16.5945 O.3       1 UNK         0.0000 
  23862 O(2)       91.4286  145.3533   16.7103 O.2       1 UNK         0.0000 
  23863 N(1)       89.2474  144.7489   16.5226 N.am      1 UNK         0.0000 
  23864 C(1)       89.3469  143.3404   16.5738 C.ar      1 UNK         0.0000 
  23865 C(2)       90.4290  142.6522   17.1221 C.ar      1 UNK         0.0000 
  23866 C(3)       90.4361  141.2604   17.1257 C.ar      1 UNK         0.0000 
  23867 C(4)       89.3660  140.5458   16.5933 C.ar      1 UNK         0.0000 
  23868 C(5)       88.2704  141.2337   16.0731 C.ar      1 UNK         0.0000 
  23869 C(6)       88.2651  142.6212   16.0644 C.ar      1 UNK         0.0000 
  23870 C(7)       90.2382  145.6542   16.5694 C.2       1 UNK         0.0000 
  23871 C(8)       89.7973  147.0883   16.4484 C.3       1 UNK         0.0000 
  23872 H(1)       91.2696  143.1947   17.5368 H         1 UNK         0.0000 
  23873 H(2)       91.2869  140.7439   17.5527 H         1 UNK         0.0000 
  23874 H(3)       87.4273  140.6845   15.6728 H         1 UNK         0.0000 
  23875 H(4)       87.4145  143.1548   15.6585 H         1 UNK         0.0000 
  23876 H(5)       88.5573  138.8019   16.4465 H         1 UNK         0.0000 
  23877 H(6)       88.3215  145.1123   16.3534 H         1 UNK         0.0000 
  23878 H(7)       89.8756  147.5514   17.3976 H         1 UNK         0.0000 
  23879 H(8)       88.8006  147.1864   16.1044 H         1 UNK         0.0000 
  23880 H(9)       90.4778  147.6060   15.8236 H         1 UNK         0.0000 
  23881 O(1)       85.0969  136.6998   22.6641 O.3       1 UNK         0.0000 
  23882 O(2)       87.0947  137.9399   16.6201 O.2       1 UNK         0.0000 
  23883 N(1)       84.9135  137.9906   17.2510 N.am      1 UNK         0.0000 
  23884 C(1)       85.0130  137.6316   18.6139 C.ar      1 UNK         0.0000 
  23885 C(2)       86.0951  136.9458   19.1651 C.ar      1 UNK         0.0000 
  23886 C(3)       86.1022  136.6370   20.5223 C.ar      1 UNK         0.0000 
  23887 C(4)       85.0321  136.9997   21.3362 C.ar      1 UNK         0.0000 
  23888 C(5)       83.9365  137.6580   20.7791 C.ar      1 UNK         0.0000 
  23889 C(6)       83.9312  137.9709   19.4273 C.ar      1 UNK         0.0000 
  23890 C(7)       85.9043  138.1434   16.3575 C.2       1 UNK         0.0000 
  23891 C(8)       85.4634  138.5760   14.9848 C.3       1 UNK         0.0000 
  23892 H(1)       86.9357  136.6601   18.5448 H         1 UNK         0.0000 
  23893 H(2)       86.9530  136.1071   20.9325 H         1 UNK         0.0000 
  23894 H(3)       83.0934  137.9281   21.4028 H         1 UNK         0.0000 
  23895 H(4)       83.0806  138.4840   18.9958 H         1 UNK         0.0000 
  23896 H(5)       84.2234  136.7604   23.0699 H         1 UNK         0.0000 
  23897 H(6)       83.9876  138.2353   16.9335 H         1 UNK         0.0000 
  23898 H(7)       85.5417  137.7516   14.3248 H         1 UNK         0.0000 
  23899 H(8)       84.4667  138.9332   14.9645 H         1 UNK         0.0000 
  23900 H(9)       86.1439  139.2991   14.6168 H         1 UNK         0.0000 
  23901 O(1)       87.8204  148.0213   19.4793 O.3       1 UNK         0.0000 
  23902 O(2)       85.8225  141.8526   19.3635 O.2       1 UNK         0.0000 
  23903 N(1)       88.0037  142.4570   19.5512 N.am      1 UNK         0.0000 
  23904 C(1)       87.9042  143.8654   19.5000 C.ar      1 UNK         0.0000 
  23905 C(2)       86.8221  144.5536   18.9517 C.ar      1 UNK         0.0000 
  23906 C(3)       86.8150  145.9454   18.9482 C.ar      1 UNK         0.0000 
  23907 C(4)       87.8851  146.6600   19.4805 C.ar      1 UNK         0.0000 
  23908 C(5)       88.9807  145.9721   20.0007 C.ar      1 UNK         0.0000 
  23909 C(6)       88.9860  144.5846   20.0094 C.ar      1 UNK         0.0000 
  23910 C(7)       87.0129  141.5516   19.5044 C.2       1 UNK         0.0000 
  23911 C(8)       87.4538  140.1175   19.6254 C.3       1 UNK         0.0000 
  23912 H(1)       85.9815  144.0111   18.5370 H         1 UNK         0.0000 
  23913 H(2)       85.9642  146.4619   18.5211 H         1 UNK         0.0000 
  23914 H(3)       89.8238  146.5214   20.4010 H         1 UNK         0.0000 
  23915 H(4)       89.8366  144.0510   20.4154 H         1 UNK         0.0000 
  23916 H(5)       88.6938  148.4039   19.6273 H         1 UNK         0.0000 
  23917 H(6)       88.9297  142.0935   19.7204 H         1 UNK         0.0000 
  23918 H(7)       87.3755  139.6544   18.6762 H         1 UNK         0.0000 
  23919 H(8)       88.4505  140.0194   19.9694 H         1 UNK         0.0000 
  23920 H(9)       86.7733  139.5998   20.2502 H         1 UNK         0.0000 
  23921 O(1)       83.4865  141.5546   20.5721 O.3       1 UNK         0.0000 
  23922 O(2)       81.4887  140.3145   26.6161 O.2       1 UNK         0.0000 
  23923 N(1)       83.6698  140.2639   25.9852 N.am      1 UNK         0.0000 
  23924 C(1)       83.5703  140.6228   24.6223 C.ar      1 UNK         0.0000 
  23925 C(2)       82.4882  141.3087   24.0711 C.ar      1 UNK         0.0000 
  23926 C(3)       82.4812  141.6174   22.7140 C.ar      1 UNK         0.0000 
  23927 C(4)       83.5512  141.2548   21.9000 C.ar      1 UNK         0.0000 
  23928 C(5)       84.6468  140.5964   22.4571 C.ar      1 UNK         0.0000 
  23929 C(6)       84.6521  140.2835   23.8089 C.ar      1 UNK         0.0000 
  23930 C(7)       82.6790  140.1111   26.8787 C.2       1 UNK         0.0000 
  23931 C(8)       83.1199  139.6784   28.2514 C.3       1 UNK         0.0000 
  23932 H(1)       81.6477  141.5943   24.6914 H         1 UNK         0.0000 
  23933 H(2)       81.6303  142.1474   22.3037 H         1 UNK         0.0000 
  23934 H(3)       85.4900  140.3263   21.8334 H         1 UNK         0.0000 
  23935 H(4)       85.5027  139.7705   24.2404 H         1 UNK         0.0000 
  23936 H(5)       84.3599  141.4941   20.1663 H         1 UNK         0.0000 
  23937 H(6)       84.5958  140.0191   26.3027 H         1 UNK         0.0000 
  23938 H(7)       83.0416  140.5029   28.9114 H         1 UNK         0.0000 
  23939 H(8)       84.1167  139.3213   28.2717 H         1 UNK         0.0000 
  23940 H(9)       82.4394  138.9553   28.6194 H         1 UNK         0.0000 
  23941 O(1)       82.3537  144.9154   23.7569 O.3       1 UNK         0.0000 
  23942 O(2)       84.3516  151.0842   23.8727 O.2       1 UNK         0.0000 
  23943 N(1)       82.1704  150.4798   23.6850 N.am      1 UNK         0.0000 
  23944 C(1)       82.2699  149.0714   23.7362 C.ar      1 UNK         0.0000 
  23945 C(2)       83.3520  148.3832   24.2845 C.ar      1 UNK         0.0000 
  23946 C(3)       83.3591  146.9914   24.2881 C.ar      1 UNK         0.0000 
  23947 C(4)       82.2890  146.2767   23.7557 C.ar      1 UNK         0.0000 
  23948 C(5)       81.1934  146.9647   23.2355 C.ar      1 UNK         0.0000 
  23949 C(6)       81.1881  148.3522   23.2268 C.ar      1 UNK         0.0000 
  23950 C(7)       83.1612  151.3851   23.7318 C.2       1 UNK         0.0000 
  23951 C(8)       82.7203  152.8193   23.6108 C.3       1 UNK         0.0000 
  23952 H(1)       84.1926  148.9257   24.6992 H         1 UNK         0.0000 
  23953 H(2)       84.2099  146.4749   24.7151 H         1 UNK         0.0000 
  23954 H(3)       80.3503  146.4154   22.8352 H         1 UNK         0.0000 
  23955 H(4)       80.3375  148.8857   22.8209 H         1 UNK         0.0000 
  23956 H(5)       81.4803  144.5328   23.6089 H         1 UNK         0.0000 
  23957 H(6)       81.2445  150.8433   23.5158 H         1 UNK         0.0000 
  23958 H(7)       82.7986  153.2824   24.5600 H         1 UNK         0.0000 
  23959 H(8)       81.7236  152.9174   23.2668 H         1 UNK         0.0000 
  23960 H(9)       83.4008  153.3369   22.9860 H         1 UNK         0.0000 
  23961 O(1)       86.6876  139.9202    8.3393 O.3       1 UNK         0.0000 
  23962 O(2)       88.6855  141.1603    2.2953 O.2       1 UNK         0.0000 
  23963 N(1)       86.5043  141.2110    2.9262 N.am      1 UNK         0.0000 
  23964 C(1)       86.6038  140.8520    4.2891 C.ar      1 UNK         0.0000 
  23965 C(2)       87.6859  140.1662    4.8403 C.ar      1 UNK         0.0000 
  23966 C(3)       87.6930  139.8574    6.1975 C.ar      1 UNK         0.0000 
  23967 C(4)       86.6229  140.2201    7.0114 C.ar      1 UNK         0.0000 
  23968 C(5)       85.5273  140.8784    6.4543 C.ar      1 UNK         0.0000 
  23969 C(6)       85.5220  141.1913    5.1025 C.ar      1 UNK         0.0000 
  23970 C(7)       87.4951  141.3638    2.0327 C.2       1 UNK         0.0000 
  23971 C(8)       87.0542  141.7964    0.6600 C.3       1 UNK         0.0000 
  23972 H(1)       88.5265  139.8805    4.2200 H         1 UNK         0.0000 
  23973 H(2)       88.5438  139.3275    6.6077 H         1 UNK         0.0000 
  23974 H(3)       84.6841  141.1485    7.0780 H         1 UNK         0.0000 
  23975 H(4)       84.6714  141.7044    4.6710 H         1 UNK         0.0000 
  23976 H(5)       85.8142  139.9808    8.7451 H         1 UNK         0.0000 
  23977 H(6)       85.5783  141.4557    2.6087 H         1 UNK         0.0000 
  23978 H(7)       87.1325  140.9720    0.0000 H         1 UNK         0.0000 
  23979 H(8)       86.0574  142.1536    0.6397 H         1 UNK         0.0000 
  23980 H(9)       87.7347  142.5195    0.2920 H         1 UNK         0.0000 
  23981 O(1)       89.4111  151.2417    5.1545 O.3       1 UNK         0.0000 
  23982 O(2)       87.4133  145.0729    5.0387 O.2       1 UNK         0.0000 
  23983 N(1)       89.5945  145.6774    5.2264 N.am      1 UNK         0.0000 
  23984 C(1)       89.4950  147.0858    5.1752 C.ar      1 UNK         0.0000 
  23985 C(2)       88.4129  147.7740    4.6269 C.ar      1 UNK         0.0000 
  23986 C(3)       88.4058  149.1658    4.6234 C.ar      1 UNK         0.0000 
  23987 C(4)       89.4759  149.8804    5.1557 C.ar      1 UNK         0.0000 
  23988 C(5)       90.5715  149.1925    5.6759 C.ar      1 UNK         0.0000 
  23989 C(6)       90.5768  147.8050    5.6846 C.ar      1 UNK         0.0000 
  23990 C(7)       88.6037  144.7720    5.1796 C.2       1 UNK         0.0000 
  23991 C(8)       89.0446  143.3379    5.3006 C.3       1 UNK         0.0000 
  23992 H(1)       87.5723  147.2315    4.2122 H         1 UNK         0.0000 
  23993 H(2)       87.5550  149.6823    4.1963 H         1 UNK         0.0000 
  23994 H(3)       91.4146  149.7418    6.0762 H         1 UNK         0.0000 
  23995 H(4)       91.4274  147.2714    6.0906 H         1 UNK         0.0000 
  23996 H(5)       90.2846  151.6243    5.3025 H         1 UNK         0.0000 
  23997 H(6)       90.5204  145.3139    5.3956 H         1 UNK         0.0000 
  23998 H(7)       88.9663  142.8748    4.3514 H         1 UNK         0.0000 
  23999 H(8)       90.0413  143.2398    5.6446 H         1 UNK         0.0000 
  24000 H(9)       88.3641  142.8202    5.9254 H         1 UNK         0.0000 
@<TRIPOS>BOND
     1    1   16 1    
     2    1    7 1    
     3    2   10 2    
     4    3   17 1    
     5    3   10 am   BACKBONE|DICT|INTERRES
     6    3    4 1    
     7    4    5 ar   
     8    4    9 ar   
     9    5   12 1    
    10    5    6 ar   
    11    6    7 ar   
    12    6   13 1    
    13    7    8 ar   
    14    8    9 ar   
    15    8   14 1    
    16    9   15 1    
    17   10   11 1    
    18   11   19 1    
    19   11   18 1    
    20   11   20 1    
    21   21   36 1    
    22   21   27 1    
    23   22   30 2    
    24   23   24 1    
    25   23   37 1    
    26   23   30 am   BACKBONE|DICT|INTERRES
    27   24   25 ar   
    28   24   29 ar   
    29   25   26 ar   
    30   25   32 1    
    31   26   33 1    
    32   26   27 ar   
    33   27   28 ar   
    34   28   34 1    
    35   28   29 ar   
    36   29   35 1    
    37   30   31 1    
    38   31   39 1    
    39   31   38 1    
    40   31   40 1    
    41   41   56 1    
    42   41   47 1    
    43   42   50 2    
    44   43   44 1    
    45   43   57 1    
    46   43   50 am   BACKBONE|DICT|INTERRES
    47   44   49 ar   
    48   44   45 ar   
    49   45   46 ar   
    50   45   52 1    
    51   46   47 ar   
    52   46   53 1    
    53   47   48 ar   
    54   48   49 ar   
    55   48   54 1    
    56   49   55 1    
    57   50   51 1    
    58   51   58 1    
    59   51   60 1    
    60   51   59 1    
    61   61   67 1    
    62   61   76 1    
    63   62   70 2    
    64   63   70 am   BACKBONE|DICT|INTERRES
    65   63   64 1    
    66   63   77 1    
    67   64   69 ar   
    68   64   65 ar   
    69   65   72 1    
    70   65   66 ar   
    71   66   73 1    
    72   66   67 ar   
    73   67   68 ar   
    74   68   74 1    
    75   68   69 ar   
    76   69   75 1    
    77   70   71 1    
    78   71   78 1    
    79   71   80 1    
    80   71   79 1    
    81   81   96 1    
    82   81   87 1    
    83   82   90 2    
    84   83   97 1    
    85   83   90 am   BACKBONE|DICT|INTERRES
    86   83   84 1    
    87   84   85 ar   
    88   84   89 ar   
    89   85   92 1    
    90   85   86 ar   
    91   86   87 ar   
    92   86   93 1    
    93   87   88 ar   
    94   88   89 ar   
    95   88   94 1    
    96   89   95 1    
    97   90   91 1    
    98   91   99 1    
    99   91   98 1    
   100   91  100 1    
   101  101  116 1    
   102  101  107 1    
   103  102  110 2    
   104  103  104 1    
   105  103  117 1    
   106  103  110 am   BACKBONE|DICT|INTERRES
   107  104  105 ar   
   108  104  109 ar   
   109  105  106 ar   
   110  105  112 1    
   111  106  113 1    
   112  106  107 ar   
   113  107  108 ar   
   114  108  114 1    
   115  108  109 ar   
   116  109  115 1    
   117  110  111 1    
   118  111  119 1    
   119  111  118 1    
   120  111  120 1    
   121  121  136 1    
   122  121  127 1    
   123  122  130 2    
   124  123  124 1    
   125  123  137 1    
   126  123  130 am   BACKBONE|DICT|INTERRES
   127  124  129 ar   
   128  124  125 ar   
   129  125  126 ar   
   130  125  132 1    
   131  126  127 ar   
   132  126  133 1    
   133  127  128 ar   
   134  128  129 ar   
   135  128  134 1    
   136  129  135 1    
   137  130  131 1    
   138  131  138 1    
   139  131  140 1    
   140  131  139 1    
   141  141  147 1    
   142  141  156 1    
   143  142  150 2    
   144  143  150 am   BACKBONE|DICT|INTERRES
   145  143  144 1    
   146  143  157 1    
   147  144  149 ar   
   148  144  145 ar   
   149  145  152 1    
   150  145  146 ar   
   151  146  153 1    
   152  146  147 ar   
   153  147  148 ar   
   154  148  154 1    
   155  148  149 ar   
   156  149  155 1    
   157  150  151 1    
   158  151  158 1    
   159  151  160 1    
   160  151  159 1    
   161  161  176 1    
   162  161  167 1    
   163  162  170 2    
   164  163  177 1    
   165  163  170 am   BACKBONE|DICT|INTERRES
   166  163  164 1    
   167  164  165 ar   
   168  164  169 ar   
   169  165  172 1    
   170  165  166 ar   
   171  166  167 ar   
   172  166  173 1    
   173  167  168 ar   
   174  168  169 ar   
   175  168  174 1    
   176  169  175 1    
   177  170  171 1    
   178  171  179 1    
   179  171  178 1    
   180  171  180 1    
   181  181  196 1    
   182  181  187 1    
   183  182  190 2    
   184  183  184 1    
   185  183  197 1    
   186  183  190 am   BACKBONE|DICT|INTERRES
   187  184  185 ar   
   188  184  189 ar   
   189  185  186 ar   
   190  185  192 1    
   191  186  193 1    
   192  186  187 ar   
   193  187  188 ar   
   194  188  194 1    
   195  188  189 ar   
   196  189  195 1    
   197  190  191 1    
   198  191  199 1    
   199  191  198 1    
   200  191  200 1    
   201  201  216 1    
   202  201  207 1    
   203  202  210 2    
   204  203  204 1    
   205  203  217 1    
   206  203  210 am   BACKBONE|DICT|INTERRES
   207  204  209 ar   
   208  204  205 ar   
   209  205  206 ar   
   210  205  212 1    
   211  206  207 ar   
   212  206  213 1    
   213  207  208 ar   
   214  208  209 ar   
   215  208  214 1    
   216  209  215 1    
   217  210  211 1    
   218  211  218 1    
   219  211  220 1    
   220  211  219 1    
   221  221  227 1    
   222  221  236 1    
   223  222  230 2    
   224  223  230 am   BACKBONE|DICT|INTERRES
   225  223  224 1    
   226  223  237 1    
   227  224  229 ar   
   228  224  225 ar   
   229  225  232 1    
   230  225  226 ar   
   231  226  233 1    
   232  226  227 ar   
   233  227  228 ar   
   234  228  234 1    
   235  228  229 ar   
   236  229  235 1    
   237  230  231 1    
   238  231  238 1    
   239  231  240 1    
   240  231  239 1    
   241  241  256 1    
   242  241  247 1    
   243  242  250 2    
   244  243  257 1    
   245  243  250 am   BACKBONE|DICT|INTERRES
   246  243  244 1    
   247  244  245 ar   
   248  244  249 ar   
   249  245  252 1    
   250  245  246 ar   
   251  246  247 ar   
   252  246  253 1    
   253  247  248 ar   
   254  248  249 ar   
   255  248  254 1    
   256  249  255 1    
   257  250  251 1    
   258  251  259 1    
   259  251  258 1    
   260  251  260 1    
   261  261  276 1    
   262  261  267 1    
   263  262  270 2    
   264  263  264 1    
   265  263  277 1    
   266  263  270 am   BACKBONE|DICT|INTERRES
   267  264  265 ar   
   268  264  269 ar   
   269  265  266 ar   
   270  265  272 1    
   271  266  273 1    
   272  266  267 ar   
   273  267  268 ar   
   274  268  274 1    
   275  268  269 ar   
   276  269  275 1    
   277  270  271 1    
   278  271  279 1    
   279  271  278 1    
   280  271  280 1    
   281  281  296 1    
   282  281  287 1    
   283  282  290 2    
   284  283  284 1    
   285  283  297 1    
   286  283  290 am   BACKBONE|DICT|INTERRES
   287  284  289 ar   
   288  284  285 ar   
   289  285  286 ar   
   290  285  292 1    
   291  286  287 ar   
   292  286  293 1    
   293  287  288 ar   
   294  288  289 ar   
   295  288  294 1    
   296  289  295 1    
   297  290  291 1    
   298  291  298 1    
   299  291  300 1    
   300  291  299 1    
   301  301  307 1    
   302  301  316 1    
   303  302  310 2    
   304  303  310 am   BACKBONE|DICT|INTERRES
   305  303  304 1    
   306  303  317 1    
   307  304  309 ar   
   308  304  305 ar   
   309  305  312 1    
   310  305  306 ar   
   311  306  313 1    
   312  306  307 ar   
   313  307  308 ar   
   314  308  314 1    
   315  308  309 ar   
   316  309  315 1    
   317  310  311 1    
   318  311  318 1    
   319  311  320 1    
   320  311  319 1    
   321  321  336 1    
   322  321  327 1    
   323  322  330 2    
   324  323  337 1    
   325  323  330 am   BACKBONE|DICT|INTERRES
   326  323  324 1    
   327  324  325 ar   
   328  324  329 ar   
   329  325  332 1    
   330  325  326 ar   
   331  326  327 ar   
   332  326  333 1    
   333  327  328 ar   
   334  328  329 ar   
   335  328  334 1    
   336  329  335 1    
   337  330  331 1    
   338  331  339 1    
   339  331  338 1    
   340  331  340 1    
   341  341  356 1    
   342  341  347 1    
   343  342  350 2    
   344  343  344 1    
   345  343  357 1    
   346  343  350 am   BACKBONE|DICT|INTERRES
   347  344  345 ar   
   348  344  349 ar   
   349  345  346 ar   
   350  345  352 1    
   351  346  353 1    
   352  346  347 ar   
   353  347  348 ar   
   354  348  354 1    
   355  348  349 ar   
   356  349  355 1    
   357  350  351 1    
   358  351  359 1    
   359  351  358 1    
   360  351  360 1    
   361  361  376 1    
   362  361  367 1    
   363  362  370 2    
   364  363  364 1    
   365  363  377 1    
   366  363  370 am   BACKBONE|DICT|INTERRES
   367  364  369 ar   
   368  364  365 ar   
   369  365  366 ar   
   370  365  372 1    
   371  366  367 ar   
   372  366  373 1    
   373  367  368 ar   
   374  368  369 ar   
   375  368  374 1    
   376  369  375 1    
   377  370  371 1    
   378  371  378 1    
   379  371  380 1    
   380  371  379 1    
   381  381  387 1    
   382  381  396 1    
   383  382  390 2    
   384  383  390 am   BACKBONE|DICT|INTERRES
   385  383  384 1    
   386  383  397 1    
   387  384  389 ar   
   388  384  385 ar   
   389  385  392 1    
   390  385  386 ar   
   391  386  393 1    
   392  386  387 ar   
   393  387  388 ar   
   394  388  394 1    
   395  388  389 ar   
   396  389  395 1    
   397  390  391 1    
   398  391  398 1    
   399  391  400 1    
   400  391  399 1    
   401  401  416 1    
   402  401  407 1    
   403  402  410 2    
   404  403  417 1    
   405  403  410 am   BACKBONE|DICT|INTERRES
   406  403  404 1    
   407  404  405 ar   
   408  404  409 ar   
   409  405  412 1    
   410  405  406 ar   
   411  406  407 ar   
   412  406  413 1    
   413  407  408 ar   
   414  408  409 ar   
   415  408  414 1    
   416  409  415 1    
   417  410  411 1    
   418  411  419 1    
   419  411  418 1    
   420  411  420 1    
   421  421  436 1    
   422  421  427 1    
   423  422  430 2    
   424  423  424 1    
   425  423  437 1    
   426  423  430 am   BACKBONE|DICT|INTERRES
   427  424  425 ar   
   428  424  429 ar   
   429  425  426 ar   
   430  425  432 1    
   431  426  433 1    
   432  426  427 ar   
   433  427  428 ar   
   434  428  434 1    
   435  428  429 ar   
   436  429  435 1    
   437  430  431 1    
   438  431  439 1    
   439  431  438 1    
   440  431  440 1    
   441  441  456 1    
   442  441  447 1    
   443  442  450 2    
   444  443  444 1    
   445  443  457 1    
   446  443  450 am   BACKBONE|DICT|INTERRES
   447  444  449 ar   
   448  444  445 ar   
   449  445  446 ar   
   450  445  452 1    
   451  446  447 ar   
   452  446  453 1    
   453  447  448 ar   
   454  448  449 ar   
   455  448  454 1    
   456  449  455 1    
   457  450  451 1    
   458  451  458 1    
   459  451  460 1    
   460  451  459 1    
   461  461  467 1    
   462  461  476 1    
   463  462  470 2    
   464  463  470 am   BACKBONE|DICT|INTERRES
   465  463  464 1    
   466  463  477 1    
   467  464  469 ar   
   468  464  465 ar   
   469  465  472 1    
   470  465  466 ar   
   471  466  473 1    
   472  466  467 ar   
   473  467  468 ar   
   474  468  474 1    
   475  468  469 ar   
   476  469  475 1    
   477  470  471 1    
   478  471  478 1    
   479  471  480 1    
   480  471  479 1    
   481  481  496 1    
   482  481  487 1    
   483  482  490 2    
   484  483  497 1    
   485  483  490 am   BACKBONE|DICT|INTERRES
   486  483  484 1    
   487  484  485 ar   
   488  484  489 ar   
   489  485  492 1    
   490  485  486 ar   
   491  486  487 ar   
   492  486  493 1    
   493  487  488 ar   
   494  488  489 ar   
   495  488  494 1    
   496  489  495 1    
   497  490  491 1    
   498  491  499 1    
   499  491  498 1    
   500  491  500 1    
   501  501  516 1    
   502  501  507 1    
   503  502  510 2    
   504  503  504 1    
   505  503  517 1    
   506  503  510 am   BACKBONE|DICT|INTERRES
   507  504  505 ar   
   508  504  509 ar   
   509  505  506 ar   
   510  505  512 1    
   511  506  513 1    
   512  506  507 ar   
   513  507  508 ar   
   514  508  514 1    
   515  508  509 ar   
   516  509  515 1    
   517  510  511 1    
   518  511  519 1    
   519  511  518 1    
   520  511  520 1    
   521  521  536 1    
   522  521  527 1    
   523  522  530 2    
   524  523  524 1    
   525  523  537 1    
   526  523  530 am   BACKBONE|DICT|INTERRES
   527  524  529 ar   
   528  524  525 ar   
   529  525  526 ar   
   530  525  532 1    
   531  526  527 ar   
   532  526  533 1    
   533  527  528 ar   
   534  528  529 ar   
   535  528  534 1    
   536  529  535 1    
   537  530  531 1    
   538  531  538 1    
   539  531  540 1    
   540  531  539 1    
   541  541  547 1    
   542  541  556 1    
   543  542  550 2    
   544  543  550 am   BACKBONE|DICT|INTERRES
   545  543  544 1    
   546  543  557 1    
   547  544  549 ar   
   548  544  545 ar   
   549  545  552 1    
   550  545  546 ar   
   551  546  553 1    
   552  546  547 ar   
   553  547  548 ar   
   554  548  554 1    
   555  548  549 ar   
   556  549  555 1    
   557  550  551 1    
   558  551  558 1    
   559  551  560 1    
   560  551  559 1    
   561  561  576 1    
   562  561  567 1    
   563  562  570 2    
   564  563  577 1    
   565  563  570 am   BACKBONE|DICT|INTERRES
   566  563  564 1    
   567  564  565 ar   
   568  564  569 ar   
   569  565  572 1    
   570  565  566 ar   
   571  566  567 ar   
   572  566  573 1    
   573  567  568 ar   
   574  568  569 ar   
   575  568  574 1    
   576  569  575 1    
   577  570  571 1    
   578  571  579 1    
   579  571  578 1    
   580  571  580 1    
   581  581  596 1    
   582  581  587 1    
   583  582  590 2    
   584  583  584 1    
   585  583  597 1    
   586  583  590 am   BACKBONE|DICT|INTERRES
   587  584  585 ar   
   588  584  589 ar   
   589  585  586 ar   
   590  585  592 1    
   591  586  593 1    
   592  586  587 ar   
   593  587  588 ar   
   594  588  594 1    
   595  588  589 ar   
   596  589  595 1    
   597  590  591 1    
   598  591  599 1    
   599  591  598 1    
   600  591  600 1    
   601  601  616 1    
   602  601  607 1    
   603  602  610 2    
   604  603  604 1    
   605  603  617 1    
   606  603  610 am   BACKBONE|DICT|INTERRES
   607  604  609 ar   
   608  604  605 ar   
   609  605  606 ar   
   610  605  612 1    
   611  606  607 ar   
   612  606  613 1    
   613  607  608 ar   
   614  608  609 ar   
   615  608  614 1    
   616  609  615 1    
   617  610  611 1    
   618  611  618 1    
   619  611  620 1    
   620  611  619 1    
   621  621  627 1    
   622  621  636 1    
   623  622  630 2    
   624  623  630 am   BACKBONE|DICT|INTERRES
   625  623  624 1    
   626  623  637 1    
   627  624  629 ar   
   628  624  625 ar   
   629  625  632 1    
   630  625  626 ar   
   631  626  633 1    
   632  626  627 ar   
   633  627  628 ar   
   634  628  634 1    
   635  628  629 ar   
   636  629  635 1    
   637  630  631 1    
   638  631  638 1    
   639  631  640 1    
   640  631  639 1    
   641  641  656 1    
   642  641  647 1    
   643  642  650 2    
   644  643  657 1    
   645  643  650 am   BACKBONE|DICT|INTERRES
   646  643  644 1    
   647  644  645 ar   
   648  644  649 ar   
   649  645  652 1    
   650  645  646 ar   
   651  646  647 ar   
   652  646  653 1    
   653  647  648 ar   
   654  648  649 ar   
   655  648  654 1    
   656  649  655 1    
   657  650  651 1    
   658  651  659 1    
   659  651  658 1    
   660  651  660 1    
   661  661  676 1    
   662  661  667 1    
   663  662  670 2    
   664  663  664 1    
   665  663  677 1    
   666  663  670 am   BACKBONE|DICT|INTERRES
   667  664  665 ar   
   668  664  669 ar   
   669  665  666 ar   
   670  665  672 1    
   671  666  673 1    
   672  666  667 ar   
   673  667  668 ar   
   674  668  674 1    
   675  668  669 ar   
   676  669  675 1    
   677  670  671 1    
   678  671  679 1    
   679  671  678 1    
   680  671  680 1    
   681  681  696 1    
   682  681  687 1    
   683  682  690 2    
   684  683  684 1    
   685  683  697 1    
   686  683  690 am   BACKBONE|DICT|INTERRES
   687  684  689 ar   
   688  684  685 ar   
   689  685  686 ar   
   690  685  692 1    
   691  686  687 ar   
   692  686  693 1    
   693  687  688 ar   
   694  688  689 ar   
   695  688  694 1    
   696  689  695 1    
   697  690  691 1    
   698  691  698 1    
   699  691  700 1    
   700  691  699 1    
   701  701  707 1    
   702  701  716 1    
   703  702  710 2    
   704  703  710 am   BACKBONE|DICT|INTERRES
   705  703  704 1    
   706  703  717 1    
   707  704  709 ar   
   708  704  705 ar   
   709  705  712 1    
   710  705  706 ar   
   711  706  713 1    
   712  706  707 ar   
   713  707  708 ar   
   714  708  714 1    
   715  708  709 ar   
   716  709  715 1    
   717  710  711 1    
   718  711  718 1    
   719  711  720 1    
   720  711  719 1    
   721  721  736 1    
   722  721  727 1    
   723  722  730 2    
   724  723  737 1    
   725  723  730 am   BACKBONE|DICT|INTERRES
   726  723  724 1    
   727  724  725 ar   
   728  724  729 ar   
   729  725  732 1    
   730  725  726 ar   
   731  726  727 ar   
   732  726  733 1    
   733  727  728 ar   
   734  728  729 ar   
   735  728  734 1    
   736  729  735 1    
   737  730  731 1    
   738  731  739 1    
   739  731  738 1    
   740  731  740 1    
   741  741  756 1    
   742  741  747 1    
   743  742  750 2    
   744  743  744 1    
   745  743  757 1    
   746  743  750 am   BACKBONE|DICT|INTERRES
   747  744  745 ar   
   748  744  749 ar   
   749  745  746 ar   
   750  745  752 1    
   751  746  753 1    
   752  746  747 ar   
   753  747  748 ar   
   754  748  754 1    
   755  748  749 ar   
   756  749  755 1    
   757  750  751 1    
   758  751  759 1    
   759  751  758 1    
   760  751  760 1    
   761  761  776 1    
   762  761  767 1    
   763  762  770 2    
   764  763  764 1    
   765  763  777 1    
   766  763  770 am   BACKBONE|DICT|INTERRES
   767  764  769 ar   
   768  764  765 ar   
   769  765  766 ar   
   770  765  772 1    
   771  766  767 ar   
   772  766  773 1    
   773  767  768 ar   
   774  768  769 ar   
   775  768  774 1    
   776  769  775 1    
   777  770  771 1    
   778  771  778 1    
   779  771  780 1    
   780  771  779 1    
   781  781  787 1    
   782  781  796 1    
   783  782  790 2    
   784  783  790 am   BACKBONE|DICT|INTERRES
   785  783  784 1    
   786  783  797 1    
   787  784  789 ar   
   788  784  785 ar   
   789  785  792 1    
   790  785  786 ar   
   791  786  793 1    
   792  786  787 ar   
   793  787  788 ar   
   794  788  794 1    
   795  788  789 ar   
   796  789  795 1    
   797  790  791 1    
   798  791  798 1    
   799  791  800 1    
   800  791  799 1    
   801  801  816 1    
   802  801  807 1    
   803  802  810 2    
   804  803  817 1    
   805  803  810 am   BACKBONE|DICT|INTERRES
   806  803  804 1    
   807  804  805 ar   
   808  804  809 ar   
   809  805  812 1    
   810  805  806 ar   
   811  806  807 ar   
   812  806  813 1    
   813  807  808 ar   
   814  808  809 ar   
   815  808  814 1    
   816  809  815 1    
   817  810  811 1    
   818  811  819 1    
   819  811  818 1    
   820  811  820 1    
   821  821  836 1    
   822  821  827 1    
   823  822  830 2    
   824  823  824 1    
   825  823  837 1    
   826  823  830 am   BACKBONE|DICT|INTERRES
   827  824  825 ar   
   828  824  829 ar   
   829  825  826 ar   
   830  825  832 1    
   831  826  833 1    
   832  826  827 ar   
   833  827  828 ar   
   834  828  834 1    
   835  828  829 ar   
   836  829  835 1    
   837  830  831 1    
   838  831  839 1    
   839  831  838 1    
   840  831  840 1    
   841  841  856 1    
   842  841  847 1    
   843  842  850 2    
   844  843  844 1    
   845  843  857 1    
   846  843  850 am   BACKBONE|DICT|INTERRES
   847  844  849 ar   
   848  844  845 ar   
   849  845  846 ar   
   850  845  852 1    
   851  846  847 ar   
   852  846  853 1    
   853  847  848 ar   
   854  848  849 ar   
   855  848  854 1    
   856  849  855 1    
   857  850  851 1    
   858  851  858 1    
   859  851  860 1    
   860  851  859 1    
   861  861  867 1    
   862  861  876 1    
   863  862  870 2    
   864  863  870 am   BACKBONE|DICT|INTERRES
   865  863  864 1    
   866  863  877 1    
   867  864  869 ar   
   868  864  865 ar   
   869  865  872 1    
   870  865  866 ar   
   871  866  873 1    
   872  866  867 ar   
   873  867  868 ar   
   874  868  874 1    
   875  868  869 ar   
   876  869  875 1    
   877  870  871 1    
   878  871  878 1    
   879  871  880 1    
   880  871  879 1    
   881  881  896 1    
   882  881  887 1    
   883  882  890 2    
   884  883  897 1    
   885  883  890 am   BACKBONE|DICT|INTERRES
   886  883  884 1    
   887  884  885 ar   
   888  884  889 ar   
   889  885  892 1    
   890  885  886 ar   
   891  886  887 ar   
   892  886  893 1    
   893  887  888 ar   
   894  888  889 ar   
   895  888  894 1    
   896  889  895 1    
   897  890  891 1    
   898  891  899 1    
   899  891  898 1    
   900  891  900 1    
   901  901  916 1    
   902  901  907 1    
   903  902  910 2    
   904  903  904 1    
   905  903  917 1    
   906  903  910 am   BACKBONE|DICT|INTERRES
   907  904  905 ar   
   908  904  909 ar   
   909  905  906 ar   
   910  905  912 1    
   911  906  913 1    
   912  906  907 ar   
   913  907  908 ar   
   914  908  914 1    
   915  908  909 ar   
   916  909  915 1    
   917  910  911 1    
   918  911  919 1    
   919  911  918 1    
   920  911  920 1    
   921  921  936 1    
   922  921  927 1    
   923  922  930 2    
   924  923  924 1    
   925  923  937 1    
   926  923  930 am   BACKBONE|DICT|INTERRES
   927  924  929 ar   
   928  924  925 ar   
   929  925  926 ar   
   930  925  932 1    
   931  926  927 ar   
   932  926  933 1    
   933  927  928 ar   
   934  928  929 ar   
   935  928  934 1    
   936  929  935 1    
   937  930  931 1    
   938  931  938 1    
   939  931  940 1    
   940  931  939 1    
   941  941  947 1    
   942  941  956 1    
   943  942  950 2    
   944  943  950 am   BACKBONE|DICT|INTERRES
   945  943  944 1    
   946  943  957 1    
   947  944  949 ar   
   948  944  945 ar   
   949  945  952 1    
   950  945  946 ar   
   951  946  953 1    
   952  946  947 ar   
   953  947  948 ar   
   954  948  954 1    
   955  948  949 ar   
   956  949  955 1    
   957  950  951 1    
   958  951  958 1    
   959  951  960 1    
   960  951  959 1    
   961  961  976 1    
   962  961  967 1    
   963  962  970 2    
   964  963  977 1    
   965  963  970 am   BACKBONE|DICT|INTERRES
   966  963  964 1    
   967  964  965 ar   
   968  964  969 ar   
   969  965  972 1    
   970  965  966 ar   
   971  966  967 ar   
   972  966  973 1    
   973  967  968 ar   
   974  968  969 ar   
   975  968  974 1    
   976  969  975 1    
   977  970  971 1    
   978  971  979 1    
   979  971  978 1    
   980  971  980 1    
   981  981  996 1    
   982  981  987 1    
   983  982  990 2    
   984  983  984 1    
   985  983  997 1    
   986  983  990 am   BACKBONE|DICT|INTERRES
   987  984  985 ar   
   988  984  989 ar   
   989  985  986 ar   
   990  985  992 1    
   991  986  993 1    
   992  986  987 ar   
   993  987  988 ar   
   994  988  994 1    
   995  988  989 ar   
   996  989  995 1    
   997  990  991 1    
   998  991  999 1    
   999  991  998 1    
  1000  991 1000 1    
  1001 1001 1016 1    
  1002 1001 1007 1    
  1003 1002 1010 2    
  1004 1003 1004 1    
  1005 1003 1017 1    
  1006 1003 1010 am   BACKBONE|DICT|INTERRES
  1007 1004 1009 ar   
  1008 1004 1005 ar   
  1009 1005 1006 ar   
  1010 1005 1012 1    
  1011 1006 1007 ar   
  1012 1006 1013 1    
  1013 1007 1008 ar   
  1014 1008 1009 ar   
  1015 1008 1014 1    
  1016 1009 1015 1    
  1017 1010 1011 1    
  1018 1011 1018 1    
  1019 1011 1020 1    
  1020 1011 1019 1    
  1021 1021 1027 1    
  1022 1021 1036 1    
  1023 1022 1030 2    
  1024 1023 1030 am   BACKBONE|DICT|INTERRES
  1025 1023 1024 1    
  1026 1023 1037 1    
  1027 1024 1029 ar   
  1028 1024 1025 ar   
  1029 1025 1032 1    
  1030 1025 1026 ar   
  1031 1026 1033 1    
  1032 1026 1027 ar   
  1033 1027 1028 ar   
  1034 1028 1034 1    
  1035 1028 1029 ar   
  1036 1029 1035 1    
  1037 1030 1031 1    
  1038 1031 1038 1    
  1039 1031 1040 1    
  1040 1031 1039 1    
  1041 1041 1056 1    
  1042 1041 1047 1    
  1043 1042 1050 2    
  1044 1043 1057 1    
  1045 1043 1050 am   BACKBONE|DICT|INTERRES
  1046 1043 1044 1    
  1047 1044 1045 ar   
  1048 1044 1049 ar   
  1049 1045 1052 1    
  1050 1045 1046 ar   
  1051 1046 1047 ar   
  1052 1046 1053 1    
  1053 1047 1048 ar   
  1054 1048 1049 ar   
  1055 1048 1054 1    
  1056 1049 1055 1    
  1057 1050 1051 1    
  1058 1051 1059 1    
  1059 1051 1058 1    
  1060 1051 1060 1    
  1061 1061 1076 1    
  1062 1061 1067 1    
  1063 1062 1070 2    
  1064 1063 1064 1    
  1065 1063 1077 1    
  1066 1063 1070 am   BACKBONE|DICT|INTERRES
  1067 1064 1065 ar   
  1068 1064 1069 ar   
  1069 1065 1066 ar   
  1070 1065 1072 1    
  1071 1066 1073 1    
  1072 1066 1067 ar   
  1073 1067 1068 ar   
  1074 1068 1074 1    
  1075 1068 1069 ar   
  1076 1069 1075 1    
  1077 1070 1071 1    
  1078 1071 1079 1    
  1079 1071 1078 1    
  1080 1071 1080 1    
  1081 1081 1096 1    
  1082 1081 1087 1    
  1083 1082 1090 2    
  1084 1083 1084 1    
  1085 1083 1097 1    
  1086 1083 1090 am   BACKBONE|DICT|INTERRES
  1087 1084 1089 ar   
  1088 1084 1085 ar   
  1089 1085 1086 ar   
  1090 1085 1092 1    
  1091 1086 1087 ar   
  1092 1086 1093 1    
  1093 1087 1088 ar   
  1094 1088 1089 ar   
  1095 1088 1094 1    
  1096 1089 1095 1    
  1097 1090 1091 1    
  1098 1091 1098 1    
  1099 1091 1100 1    
  1100 1091 1099 1    
  1101 1101 1107 1    
  1102 1101 1116 1    
  1103 1102 1110 2    
  1104 1103 1110 am   BACKBONE|DICT|INTERRES
  1105 1103 1104 1    
  1106 1103 1117 1    
  1107 1104 1109 ar   
  1108 1104 1105 ar   
  1109 1105 1112 1    
  1110 1105 1106 ar   
  1111 1106 1113 1    
  1112 1106 1107 ar   
  1113 1107 1108 ar   
  1114 1108 1114 1    
  1115 1108 1109 ar   
  1116 1109 1115 1    
  1117 1110 1111 1    
  1118 1111 1118 1    
  1119 1111 1120 1    
  1120 1111 1119 1    
  1121 1121 1136 1    
  1122 1121 1127 1    
  1123 1122 1130 2    
  1124 1123 1137 1    
  1125 1123 1130 am   BACKBONE|DICT|INTERRES
  1126 1123 1124 1    
  1127 1124 1125 ar   
  1128 1124 1129 ar   
  1129 1125 1132 1    
  1130 1125 1126 ar   
  1131 1126 1127 ar   
  1132 1126 1133 1    
  1133 1127 1128 ar   
  1134 1128 1129 ar   
  1135 1128 1134 1    
  1136 1129 1135 1    
  1137 1130 1131 1    
  1138 1131 1139 1    
  1139 1131 1138 1    
  1140 1131 1140 1    
  1141 1141 1156 1    
  1142 1141 1147 1    
  1143 1142 1150 2    
  1144 1143 1144 1    
  1145 1143 1157 1    
  1146 1143 1150 am   BACKBONE|DICT|INTERRES
  1147 1144 1145 ar   
  1148 1144 1149 ar   
  1149 1145 1146 ar   
  1150 1145 1152 1    
  1151 1146 1153 1    
  1152 1146 1147 ar   
  1153 1147 1148 ar   
  1154 1148 1154 1    
  1155 1148 1149 ar   
  1156 1149 1155 1    
  1157 1150 1151 1    
  1158 1151 1159 1    
  1159 1151 1158 1    
  1160 1151 1160 1    
  1161 1161 1176 1    
  1162 1161 1167 1    
  1163 1162 1170 2    
  1164 1163 1164 1    
  1165 1163 1177 1    
  1166 1163 1170 am   BACKBONE|DICT|INTERRES
  1167 1164 1169 ar   
  1168 1164 1165 ar   
  1169 1165 1166 ar   
  1170 1165 1172 1    
  1171 1166 1167 ar   
  1172 1166 1173 1    
  1173 1167 1168 ar   
  1174 1168 1169 ar   
  1175 1168 1174 1    
  1176 1169 1175 1    
  1177 1170 1171 1    
  1178 1171 1178 1    
  1179 1171 1180 1    
  1180 1171 1179 1    
  1181 1181 1187 1    
  1182 1181 1196 1    
  1183 1182 1190 2    
  1184 1183 1190 am   BACKBONE|DICT|INTERRES
  1185 1183 1184 1    
  1186 1183 1197 1    
  1187 1184 1189 ar   
  1188 1184 1185 ar   
  1189 1185 1192 1    
  1190 1185 1186 ar   
  1191 1186 1193 1    
  1192 1186 1187 ar   
  1193 1187 1188 ar   
  1194 1188 1194 1    
  1195 1188 1189 ar   
  1196 1189 1195 1    
  1197 1190 1191 1    
  1198 1191 1198 1    
  1199 1191 1200 1    
  1200 1191 1199 1    
  1201 1201 1216 1    
  1202 1201 1207 1    
  1203 1202 1210 2    
  1204 1203 1217 1    
  1205 1203 1210 am   BACKBONE|DICT|INTERRES
  1206 1203 1204 1    
  1207 1204 1205 ar   
  1208 1204 1209 ar   
  1209 1205 1212 1    
  1210 1205 1206 ar   
  1211 1206 1207 ar   
  1212 1206 1213 1    
  1213 1207 1208 ar   
  1214 1208 1209 ar   
  1215 1208 1214 1    
  1216 1209 1215 1    
  1217 1210 1211 1    
  1218 1211 1219 1    
  1219 1211 1218 1    
  1220 1211 1220 1    
  1221 1221 1236 1    
  1222 1221 1227 1    
  1223 1222 1230 2    
  1224 1223 1224 1    
  1225 1223 1237 1    
  1226 1223 1230 am   BACKBONE|DICT|INTERRES
  1227 1224 1225 ar   
  1228 1224 1229 ar   
  1229 1225 1226 ar   
  1230 1225 1232 1    
  1231 1226 1233 1    
  1232 1226 1227 ar   
  1233 1227 1228 ar   
  1234 1228 1234 1    
  1235 1228 1229 ar   
  1236 1229 1235 1    
  1237 1230 1231 1    
  1238 1231 1239 1    
  1239 1231 1238 1    
  1240 1231 1240 1    
  1241 1241 1256 1    
  1242 1241 1247 1    
  1243 1242 1250 2    
  1244 1243 1244 1    
  1245 1243 1257 1    
  1246 1243 1250 am   BACKBONE|DICT|INTERRES
  1247 1244 1249 ar   
  1248 1244 1245 ar   
  1249 1245 1246 ar   
  1250 1245 1252 1    
  1251 1246 1247 ar   
  1252 1246 1253 1    
  1253 1247 1248 ar   
  1254 1248 1249 ar   
  1255 1248 1254 1    
  1256 1249 1255 1    
  1257 1250 1251 1    
  1258 1251 1258 1    
  1259 1251 1260 1    
  1260 1251 1259 1    
  1261 1261 1267 1    
  1262 1261 1276 1    
  1263 1262 1270 2    
  1264 1263 1270 am   BACKBONE|DICT|INTERRES
  1265 1263 1264 1    
  1266 1263 1277 1    
  1267 1264 1269 ar   
  1268 1264 1265 ar   
  1269 1265 1272 1    
  1270 1265 1266 ar   
  1271 1266 1273 1    
  1272 1266 1267 ar   
  1273 1267 1268 ar   
  1274 1268 1274 1    
  1275 1268 1269 ar   
  1276 1269 1275 1    
  1277 1270 1271 1    
  1278 1271 1278 1    
  1279 1271 1280 1    
  1280 1271 1279 1    
  1281 1281 1296 1    
  1282 1281 1287 1    
  1283 1282 1290 2    
  1284 1283 1297 1    
  1285 1283 1290 am   BACKBONE|DICT|INTERRES
  1286 1283 1284 1    
  1287 1284 1285 ar   
  1288 1284 1289 ar   
  1289 1285 1292 1    
  1290 1285 1286 ar   
  1291 1286 1287 ar   
  1292 1286 1293 1    
  1293 1287 1288 ar   
  1294 1288 1289 ar   
  1295 1288 1294 1    
  1296 1289 1295 1    
  1297 1290 1291 1    
  1298 1291 1299 1    
  1299 1291 1298 1    
  1300 1291 1300 1    
  1301 1301 1316 1    
  1302 1301 1307 1    
  1303 1302 1310 2    
  1304 1303 1304 1    
  1305 1303 1317 1    
  1306 1303 1310 am   BACKBONE|DICT|INTERRES
  1307 1304 1305 ar   
  1308 1304 1309 ar   
  1309 1305 1306 ar   
  1310 1305 1312 1    
  1311 1306 1313 1    
  1312 1306 1307 ar   
  1313 1307 1308 ar   
  1314 1308 1314 1    
  1315 1308 1309 ar   
  1316 1309 1315 1    
  1317 1310 1311 1    
  1318 1311 1319 1    
  1319 1311 1318 1    
  1320 1311 1320 1    
  1321 1321 1336 1    
  1322 1321 1327 1    
  1323 1322 1330 2    
  1324 1323 1324 1    
  1325 1323 1337 1    
  1326 1323 1330 am   BACKBONE|DICT|INTERRES
  1327 1324 1329 ar   
  1328 1324 1325 ar   
  1329 1325 1326 ar   
  1330 1325 1332 1    
  1331 1326 1327 ar   
  1332 1326 1333 1    
  1333 1327 1328 ar   
  1334 1328 1329 ar   
  1335 1328 1334 1    
  1336 1329 1335 1    
  1337 1330 1331 1    
  1338 1331 1338 1    
  1339 1331 1340 1    
  1340 1331 1339 1    
  1341 1341 1347 1    
  1342 1341 1356 1    
  1343 1342 1350 2    
  1344 1343 1350 am   BACKBONE|DICT|INTERRES
  1345 1343 1344 1    
  1346 1343 1357 1    
  1347 1344 1349 ar   
  1348 1344 1345 ar   
  1349 1345 1352 1    
  1350 1345 1346 ar   
  1351 1346 1353 1    
  1352 1346 1347 ar   
  1353 1347 1348 ar   
  1354 1348 1354 1    
  1355 1348 1349 ar   
  1356 1349 1355 1    
  1357 1350 1351 1    
  1358 1351 1358 1    
  1359 1351 1360 1    
  1360 1351 1359 1    
  1361 1361 1376 1    
  1362 1361 1367 1    
  1363 1362 1370 2    
  1364 1363 1377 1    
  1365 1363 1370 am   BACKBONE|DICT|INTERRES
  1366 1363 1364 1    
  1367 1364 1365 ar   
  1368 1364 1369 ar   
  1369 1365 1372 1    
  1370 1365 1366 ar   
  1371 1366 1367 ar   
  1372 1366 1373 1    
  1373 1367 1368 ar   
  1374 1368 1369 ar   
  1375 1368 1374 1    
  1376 1369 1375 1    
  1377 1370 1371 1    
  1378 1371 1379 1    
  1379 1371 1378 1    
  1380 1371 1380 1    
  1381 1381 1396 1    
  1382 1381 1387 1    
  1383 1382 1390 2    
  1384 1383 1384 1    
  1385 1383 1397 1    
  1386 1383 1390 am   BACKBONE|DICT|INTERRES
  1387 1384 1385 ar   
  1388 1384 1389 ar   
  1389 1385 1386 ar   
  1390 1385 1392 1    
  1391 1386 1393 1    
  1392 1386 1387 ar   
  1393 1387 1388 ar   
  1394 1388 1394 1    
  1395 1388 1389 ar   
  1396 1389 1395 1    
  1397 1390 1391 1    
  1398 1391 1399 1    
  1399 1391 1398 1    
  1400 1391 1400 1    
  1401 1401 1416 1    
  1402 1401 1407 1    
  1403 1402 1410 2    
  1404 1403 1404 1    
  1405 1403 1417 1    
  1406 1403 1410 am   BACKBONE|DICT|INTERRES
  1407 1404 1409 ar   
  1408 1404 1405 ar   
  1409 1405 1406 ar   
  1410 1405 1412 1    
  1411 1406 1407 ar   
  1412 1406 1413 1    
  1413 1407 1408 ar   
  1414 1408 1409 ar   
  1415 1408 1414 1    
  1416 1409 1415 1    
  1417 1410 1411 1    
  1418 1411 1418 1    
  1419 1411 1420 1    
  1420 1411 1419 1    
  1421 1421 1427 1    
  1422 1421 1436 1    
  1423 1422 1430 2    
  1424 1423 1430 am   BACKBONE|DICT|INTERRES
  1425 1423 1424 1    
  1426 1423 1437 1    
  1427 1424 1429 ar   
  1428 1424 1425 ar   
  1429 1425 1432 1    
  1430 1425 1426 ar   
  1431 1426 1433 1    
  1432 1426 1427 ar   
  1433 1427 1428 ar   
  1434 1428 1434 1    
  1435 1428 1429 ar   
  1436 1429 1435 1    
  1437 1430 1431 1    
  1438 1431 1438 1    
  1439 1431 1440 1    
  1440 1431 1439 1    
  1441 1441 1456 1    
  1442 1441 1447 1    
  1443 1442 1450 2    
  1444 1443 1457 1    
  1445 1443 1450 am   BACKBONE|DICT|INTERRES
  1446 1443 1444 1    
  1447 1444 1445 ar   
  1448 1444 1449 ar   
  1449 1445 1452 1    
  1450 1445 1446 ar   
  1451 1446 1447 ar   
  1452 1446 1453 1    
  1453 1447 1448 ar   
  1454 1448 1449 ar   
  1455 1448 1454 1    
  1456 1449 1455 1    
  1457 1450 1451 1    
  1458 1451 1459 1    
  1459 1451 1458 1    
  1460 1451 1460 1    
  1461 1461 1476 1    
  1462 1461 1467 1    
  1463 1462 1470 2    
  1464 1463 1464 1    
  1465 1463 1477 1    
  1466 1463 1470 am   BACKBONE|DICT|INTERRES
  1467 1464 1465 ar   
  1468 1464 1469 ar   
  1469 1465 1466 ar   
  1470 1465 1472 1    
  1471 1466 1473 1    
  1472 1466 1467 ar   
  1473 1467 1468 ar   
  1474 1468 1474 1    
  1475 1468 1469 ar   
  1476 1469 1475 1    
  1477 1470 1471 1    
  1478 1471 1479 1    
  1479 1471 1478 1    
  1480 1471 1480 1    
  1481 1481 1496 1    
  1482 1481 1487 1    
  1483 1482 1490 2    
  1484 1483 1484 1    
  1485 1483 1497 1    
  1486 1483 1490 am   BACKBONE|DICT|INTERRES
  1487 1484 1489 ar   
  1488 1484 1485 ar   
  1489 1485 1486 ar   
  1490 1485 1492 1    
  1491 1486 1487 ar   
  1492 1486 1493 1    
  1493 1487 1488 ar   
  1494 1488 1489 ar   
  1495 1488 1494 1    
  1496 1489 1495 1    
  1497 1490 1491 1    
  1498 1491 1498 1    
  1499 1491 1500 1    
  1500 1491 1499 1    
  1501 1501 1507 1    
  1502 1501 1516 1    
  1503 1502 1510 2    
  1504 1503 1510 am   BACKBONE|DICT|INTERRES
  1505 1503 1504 1    
  1506 1503 1517 1    
  1507 1504 1509 ar   
  1508 1504 1505 ar   
  1509 1505 1512 1    
  1510 1505 1506 ar   
  1511 1506 1513 1    
  1512 1506 1507 ar   
  1513 1507 1508 ar   
  1514 1508 1514 1    
  1515 1508 1509 ar   
  1516 1509 1515 1    
  1517 1510 1511 1    
  1518 1511 1518 1    
  1519 1511 1520 1    
  1520 1511 1519 1    
  1521 1521 1536 1    
  1522 1521 1527 1    
  1523 1522 1530 2    
  1524 1523 1537 1    
  1525 1523 1530 am   BACKBONE|DICT|INTERRES
  1526 1523 1524 1    
  1527 1524 1525 ar   
  1528 1524 1529 ar   
  1529 1525 1532 1    
  1530 1525 1526 ar   
  1531 1526 1527 ar   
  1532 1526 1533 1    
  1533 1527 1528 ar   
  1534 1528 1529 ar   
  1535 1528 1534 1    
  1536 1529 1535 1    
  1537 1530 1531 1    
  1538 1531 1539 1    
  1539 1531 1538 1    
  1540 1531 1540 1    
  1541 1541 1556 1    
  1542 1541 1547 1    
  1543 1542 1550 2    
  1544 1543 1544 1    
  1545 1543 1557 1    
  1546 1543 1550 am   BACKBONE|DICT|INTERRES
  1547 1544 1545 ar   
  1548 1544 1549 ar   
  1549 1545 1546 ar   
  1550 1545 1552 1    
  1551 1546 1553 1    
  1552 1546 1547 ar   
  1553 1547 1548 ar   
  1554 1548 1554 1    
  1555 1548 1549 ar   
  1556 1549 1555 1    
  1557 1550 1551 1    
  1558 1551 1559 1    
  1559 1551 1558 1    
  1560 1551 1560 1    
  1561 1561 1576 1    
  1562 1561 1567 1    
  1563 1562 1570 2    
  1564 1563 1564 1    
  1565 1563 1577 1    
  1566 1563 1570 am   BACKBONE|DICT|INTERRES
  1567 1564 1569 ar   
  1568 1564 1565 ar   
  1569 1565 1566 ar   
  1570 1565 1572 1    
  1571 1566 1567 ar   
  1572 1566 1573 1    
  1573 1567 1568 ar   
  1574 1568 1569 ar   
  1575 1568 1574 1    
  1576 1569 1575 1    
  1577 1570 1571 1    
  1578 1571 1578 1    
  1579 1571 1580 1    
  1580 1571 1579 1    
  1581 1581 1587 1    
  1582 1581 1596 1    
  1583 1582 1590 2    
  1584 1583 1590 am   BACKBONE|DICT|INTERRES
  1585 1583 1584 1    
  1586 1583 1597 1    
  1587 1584 1589 ar   
  1588 1584 1585 ar   
  1589 1585 1592 1    
  1590 1585 1586 ar   
  1591 1586 1593 1    
  1592 1586 1587 ar   
  1593 1587 1588 ar   
  1594 1588 1594 1    
  1595 1588 1589 ar   
  1596 1589 1595 1    
  1597 1590 1591 1    
  1598 1591 1598 1    
  1599 1591 1600 1    
  1600 1591 1599 1    
  1601 1601 1616 1    
  1602 1601 1607 1    
  1603 1602 1610 2    
  1604 1603 1617 1    
  1605 1603 1610 am   BACKBONE|DICT|INTERRES
  1606 1603 1604 1    
  1607 1604 1605 ar   
  1608 1604 1609 ar   
  1609 1605 1612 1    
  1610 1605 1606 ar   
  1611 1606 1607 ar   
  1612 1606 1613 1    
  1613 1607 1608 ar   
  1614 1608 1609 ar   
  1615 1608 1614 1    
  1616 1609 1615 1    
  1617 1610 1611 1    
  1618 1611 1619 1    
  1619 1611 1618 1    
  1620 1611 1620 1    
  1621 1621 1636 1    
  1622 1621 1627 1    
  1623 1622 1630 2    
  1624 1623 1624 1    
  1625 1623 1637 1    
  1626 1623 1630 am   BACKBONE|DICT|INTERRES
  1627 1624 1625 ar   
  1628 1624 1629 ar   
  1629 1625 1626 ar   
  1630 1625 1632 1    
  1631 1626 1633 1    
  1632 1626 1627 ar   
  1633 1627 1628 ar   
  1634 1628 1634 1    
  1635 1628 1629 ar   
  1636 1629 1635 1    
  1637 1630 1631 1    
  1638 1631 1639 1    
  1639 1631 1638 1    
  1640 1631 1640 1    
  1641 1641 1656 1    
  1642 1641 1647 1    
  1643 1642 1650 2    
  1644 1643 1644 1    
  1645 1643 1657 1    
  1646 1643 1650 am   BACKBONE|DICT|INTERRES
  1647 1644 1649 ar   
  1648 1644 1645 ar   
  1649 1645 1646 ar   
  1650 1645 1652 1    
  1651 1646 1647 ar   
  1652 1646 1653 1    
  1653 1647 1648 ar   
  1654 1648 1649 ar   
  1655 1648 1654 1    
  1656 1649 1655 1    
  1657 1650 1651 1    
  1658 1651 1658 1    
  1659 1651 1660 1    
  1660 1651 1659 1    
  1661 1661 1667 1    
  1662 1661 1676 1    
  1663 1662 1670 2    
  1664 1663 1670 am   BACKBONE|DICT|INTERRES
  1665 1663 1664 1    
  1666 1663 1677 1    
  1667 1664 1669 ar   
  1668 1664 1665 ar   
  1669 1665 1672 1    
  1670 1665 1666 ar   
  1671 1666 1673 1    
  1672 1666 1667 ar   
  1673 1667 1668 ar   
  1674 1668 1674 1    
  1675 1668 1669 ar   
  1676 1669 1675 1    
  1677 1670 1671 1    
  1678 1671 1678 1    
  1679 1671 1680 1    
  1680 1671 1679 1    
  1681 1681 1696 1    
  1682 1681 1687 1    
  1683 1682 1690 2    
  1684 1683 1697 1    
  1685 1683 1690 am   BACKBONE|DICT|INTERRES
  1686 1683 1684 1    
  1687 1684 1685 ar   
  1688 1684 1689 ar   
  1689 1685 1692 1    
  1690 1685 1686 ar   
  1691 1686 1687 ar   
  1692 1686 1693 1    
  1693 1687 1688 ar   
  1694 1688 1689 ar   
  1695 1688 1694 1    
  1696 1689 1695 1    
  1697 1690 1691 1    
  1698 1691 1699 1    
  1699 1691 1698 1    
  1700 1691 1700 1    
  1701 1701 1716 1    
  1702 1701 1707 1    
  1703 1702 1710 2    
  1704 1703 1704 1    
  1705 1703 1717 1    
  1706 1703 1710 am   BACKBONE|DICT|INTERRES
  1707 1704 1705 ar   
  1708 1704 1709 ar   
  1709 1705 1706 ar   
  1710 1705 1712 1    
  1711 1706 1713 1    
  1712 1706 1707 ar   
  1713 1707 1708 ar   
  1714 1708 1714 1    
  1715 1708 1709 ar   
  1716 1709 1715 1    
  1717 1710 1711 1    
  1718 1711 1719 1    
  1719 1711 1718 1    
  1720 1711 1720 1    
  1721 1721 1736 1    
  1722 1721 1727 1    
  1723 1722 1730 2    
  1724 1723 1724 1    
  1725 1723 1737 1    
  1726 1723 1730 am   BACKBONE|DICT|INTERRES
  1727 1724 1729 ar   
  1728 1724 1725 ar   
  1729 1725 1726 ar   
  1730 1725 1732 1    
  1731 1726 1727 ar   
  1732 1726 1733 1    
  1733 1727 1728 ar   
  1734 1728 1729 ar   
  1735 1728 1734 1    
  1736 1729 1735 1    
  1737 1730 1731 1    
  1738 1731 1738 1    
  1739 1731 1740 1    
  1740 1731 1739 1    
  1741 1741 1747 1    
  1742 1741 1756 1    
  1743 1742 1750 2    
  1744 1743 1750 am   BACKBONE|DICT|INTERRES
  1745 1743 1744 1    
  1746 1743 1757 1    
  1747 1744 1749 ar   
  1748 1744 1745 ar   
  1749 1745 1752 1    
  1750 1745 1746 ar   
  1751 1746 1753 1    
  1752 1746 1747 ar   
  1753 1747 1748 ar   
  1754 1748 1754 1    
  1755 1748 1749 ar   
  1756 1749 1755 1    
  1757 1750 1751 1    
  1758 1751 1758 1    
  1759 1751 1760 1    
  1760 1751 1759 1    
  1761 1761 1776 1    
  1762 1761 1767 1    
  1763 1762 1770 2    
  1764 1763 1777 1    
  1765 1763 1770 am   BACKBONE|DICT|INTERRES
  1766 1763 1764 1    
  1767 1764 1765 ar   
  1768 1764 1769 ar   
  1769 1765 1772 1    
  1770 1765 1766 ar   
  1771 1766 1767 ar   
  1772 1766 1773 1    
  1773 1767 1768 ar   
  1774 1768 1769 ar   
  1775 1768 1774 1    
  1776 1769 1775 1    
  1777 1770 1771 1    
  1778 1771 1779 1    
  1779 1771 1778 1    
  1780 1771 1780 1    
  1781 1781 1796 1    
  1782 1781 1787 1    
  1783 1782 1790 2    
  1784 1783 1784 1    
  1785 1783 1797 1    
  1786 1783 1790 am   BACKBONE|DICT|INTERRES
  1787 1784 1785 ar   
  1788 1784 1789 ar   
  1789 1785 1786 ar   
  1790 1785 1792 1    
  1791 1786 1793 1    
  1792 1786 1787 ar   
  1793 1787 1788 ar   
  1794 1788 1794 1    
  1795 1788 1789 ar   
  1796 1789 1795 1    
  1797 1790 1791 1    
  1798 1791 1799 1    
  1799 1791 1798 1    
  1800 1791 1800 1    
  1801 1801 1816 1    
  1802 1801 1807 1    
  1803 1802 1810 2    
  1804 1803 1804 1    
  1805 1803 1817 1    
  1806 1803 1810 am   BACKBONE|DICT|INTERRES
  1807 1804 1809 ar   
  1808 1804 1805 ar   
  1809 1805 1806 ar   
  1810 1805 1812 1    
  1811 1806 1807 ar   
  1812 1806 1813 1    
  1813 1807 1808 ar   
  1814 1808 1809 ar   
  1815 1808 1814 1    
  1816 1809 1815 1    
  1817 1810 1811 1    
  1818 1811 1818 1    
  1819 1811 1820 1    
  1820 1811 1819 1    
  1821 1821 1827 1    
  1822 1821 1836 1    
  1823 1822 1830 2    
  1824 1823 1830 am   BACKBONE|DICT|INTERRES
  1825 1823 1824 1    
  1826 1823 1837 1    
  1827 1824 1829 ar   
  1828 1824 1825 ar   
  1829 1825 1832 1    
  1830 1825 1826 ar   
  1831 1826 1833 1    
  1832 1826 1827 ar   
  1833 1827 1828 ar   
  1834 1828 1834 1    
  1835 1828 1829 ar   
  1836 1829 1835 1    
  1837 1830 1831 1    
  1838 1831 1838 1    
  1839 1831 1840 1    
  1840 1831 1839 1    
  1841 1841 1856 1    
  1842 1841 1847 1    
  1843 1842 1850 2    
  1844 1843 1857 1    
  1845 1843 1850 am   BACKBONE|DICT|INTERRES
  1846 1843 1844 1    
  1847 1844 1845 ar   
  1848 1844 1849 ar   
  1849 1845 1852 1    
  1850 1845 1846 ar   
  1851 1846 1847 ar   
  1852 1846 1853 1    
  1853 1847 1848 ar   
  1854 1848 1849 ar   
  1855 1848 1854 1    
  1856 1849 1855 1    
  1857 1850 1851 1    
  1858 1851 1859 1    
  1859 1851 1858 1    
  1860 1851 1860 1    
  1861 1861 1876 1    
  1862 1861 1867 1    
  1863 1862 1870 2    
  1864 1863 1864 1    
  1865 1863 1877 1    
  1866 1863 1870 am   BACKBONE|DICT|INTERRES
  1867 1864 1865 ar   
  1868 1864 1869 ar   
  1869 1865 1866 ar   
  1870 1865 1872 1    
  1871 1866 1873 1    
  1872 1866 1867 ar   
  1873 1867 1868 ar   
  1874 1868 1874 1    
  1875 1868 1869 ar   
  1876 1869 1875 1    
  1877 1870 1871 1    
  1878 1871 1879 1    
  1879 1871 1878 1    
  1880 1871 1880 1    
  1881 1881 1896 1    
  1882 1881 1887 1    
  1883 1882 1890 2    
  1884 1883 1884 1    
  1885 1883 1897 1    
  1886 1883 1890 am   BACKBONE|DICT|INTERRES
  1887 1884 1889 ar   
  1888 1884 1885 ar   
  1889 1885 1886 ar   
  1890 1885 1892 1    
  1891 1886 1887 ar   
  1892 1886 1893 1    
  1893 1887 1888 ar   
  1894 1888 1889 ar   
  1895 1888 1894 1    
  1896 1889 1895 1    
  1897 1890 1891 1    
  1898 1891 1898 1    
  1899 1891 1900 1    
  1900 1891 1899 1    
  1901 1901 1907 1    
  1902 1901 1916 1    
  1903 1902 1910 2    
  1904 1903 1910 am   BACKBONE|DICT|INTERRES
  1905 1903 1904 1    
  1906 1903 1917 1    
  1907 1904 1909 ar   
  1908 1904 1905 ar   
  1909 1905 1912 1    
  1910 1905 1906 ar   
  1911 1906 1913 1    
  1912 1906 1907 ar   
  1913 1907 1908 ar   
  1914 1908 1914 1    
  1915 1908 1909 ar   
  1916 1909 1915 1    
  1917 1910 1911 1    
  1918 1911 1918 1    
  1919 1911 1920 1    
  1920 1911 1919 1    
  1921 1921 1936 1    
  1922 1921 1927 1    
  1923 1922 1930 2    
  1924 1923 1937 1    
  1925 1923 1930 am   BACKBONE|DICT|INTERRES
  1926 1923 1924 1    
  1927 1924 1925 ar   
  1928 1924 1929 ar   
  1929 1925 1932 1    
  1930 1925 1926 ar   
  1931 1926 1927 ar   
  1932 1926 1933 1    
  1933 1927 1928 ar   
  1934 1928 1929 ar   
  1935 1928 1934 1    
  1936 1929 1935 1    
  1937 1930 1931 1    
  1938 1931 1939 1    
  1939 1931 1938 1    
  1940 1931 1940 1    
  1941 1941 1956 1    
  1942 1941 1947 1    
  1943 1942 1950 2    
  1944 1943 1944 1    
  1945 1943 1957 1    
  1946 1943 1950 am   BACKBONE|DICT|INTERRES
  1947 1944 1945 ar   
  1948 1944 1949 ar   
  1949 1945 1946 ar   
  1950 1945 1952 1    
  1951 1946 1953 1    
  1952 1946 1947 ar   
  1953 1947 1948 ar   
  1954 1948 1954 1    
  1955 1948 1949 ar   
  1956 1949 1955 1    
  1957 1950 1951 1    
  1958 1951 1959 1    
  1959 1951 1958 1    
  1960 1951 1960 1    
  1961 1961 1976 1    
  1962 1961 1967 1    
  1963 1962 1970 2    
  1964 1963 1964 1    
  1965 1963 1977 1    
  1966 1963 1970 am   BACKBONE|DICT|INTERRES
  1967 1964 1969 ar   
  1968 1964 1965 ar   
  1969 1965 1966 ar   
  1970 1965 1972 1    
  1971 1966 1967 ar   
  1972 1966 1973 1    
  1973 1967 1968 ar   
  1974 1968 1969 ar   
  1975 1968 1974 1    
  1976 1969 1975 1    
  1977 1970 1971 1    
  1978 1971 1978 1    
  1979 1971 1980 1    
  1980 1971 1979 1    
  1981 1981 1987 1    
  1982 1981 1996 1    
  1983 1982 1990 2    
  1984 1983 1990 am   BACKBONE|DICT|INTERRES
  1985 1983 1984 1    
  1986 1983 1997 1    
  1987 1984 1989 ar   
  1988 1984 1985 ar   
  1989 1985 1992 1    
  1990 1985 1986 ar   
  1991 1986 1993 1    
  1992 1986 1987 ar   
  1993 1987 1988 ar   
  1994 1988 1994 1    
  1995 1988 1989 ar   
  1996 1989 1995 1    
  1997 1990 1991 1    
  1998 1991 1998 1    
  1999 1991 2000 1    
  2000 1991 1999 1    
  2001 2001 2016 1    
  2002 2001 2007 1    
  2003 2002 2010 2    
  2004 2003 2017 1    
  2005 2003 2010 am   BACKBONE|DICT|INTERRES
  2006 2003 2004 1    
  2007 2004 2005 ar   
  2008 2004 2009 ar   
  2009 2005 2012 1    
  2010 2005 2006 ar   
  2011 2006 2007 ar   
  2012 2006 2013 1    
  2013 2007 2008 ar   
  2014 2008 2009 ar   
  2015 2008 2014 1    
  2016 2009 2015 1    
  2017 2010 2011 1    
  2018 2011 2019 1    
  2019 2011 2018 1    
  2020 2011 2020 1    
  2021 2021 2036 1    
  2022 2021 2027 1    
  2023 2022 2030 2    
  2024 2023 2024 1    
  2025 2023 2037 1    
  2026 2023 2030 am   BACKBONE|DICT|INTERRES
  2027 2024 2025 ar   
  2028 2024 2029 ar   
  2029 2025 2026 ar   
  2030 2025 2032 1    
  2031 2026 2033 1    
  2032 2026 2027 ar   
  2033 2027 2028 ar   
  2034 2028 2034 1    
  2035 2028 2029 ar   
  2036 2029 2035 1    
  2037 2030 2031 1    
  2038 2031 2039 1    
  2039 2031 2038 1    
  2040 2031 2040 1    
  2041 2041 2056 1    
  2042 2041 2047 1    
  2043 2042 2050 2    
  2044 2043 2044 1    
  2045 2043 2057 1    
  2046 2043 2050 am   BACKBONE|DICT|INTERRES
  2047 2044 2049 ar   
  2048 2044 2045 ar   
  2049 2045 2046 ar   
  2050 2045 2052 1    
  2051 2046 2047 ar   
  2052 2046 2053 1    
  2053 2047 2048 ar   
  2054 2048 2049 ar   
  2055 2048 2054 1    
  2056 2049 2055 1    
  2057 2050 2051 1    
  2058 2051 2058 1    
  2059 2051 2060 1    
  2060 2051 2059 1    
  2061 2061 2067 1    
  2062 2061 2076 1    
  2063 2062 2070 2    
  2064 2063 2070 am   BACKBONE|DICT|INTERRES
  2065 2063 2064 1    
  2066 2063 2077 1    
  2067 2064 2069 ar   
  2068 2064 2065 ar   
  2069 2065 2072 1    
  2070 2065 2066 ar   
  2071 2066 2073 1    
  2072 2066 2067 ar   
  2073 2067 2068 ar   
  2074 2068 2074 1    
  2075 2068 2069 ar   
  2076 2069 2075 1    
  2077 2070 2071 1    
  2078 2071 2078 1    
  2079 2071 2080 1    
  2080 2071 2079 1    
  2081 2081 2096 1    
  2082 2081 2087 1    
  2083 2082 2090 2    
  2084 2083 2097 1    
  2085 2083 2090 am   BACKBONE|DICT|INTERRES
  2086 2083 2084 1    
  2087 2084 2085 ar   
  2088 2084 2089 ar   
  2089 2085 2092 1    
  2090 2085 2086 ar   
  2091 2086 2087 ar   
  2092 2086 2093 1    
  2093 2087 2088 ar   
  2094 2088 2089 ar   
  2095 2088 2094 1    
  2096 2089 2095 1    
  2097 2090 2091 1    
  2098 2091 2099 1    
  2099 2091 2098 1    
  2100 2091 2100 1    
  2101 2101 2116 1    
  2102 2101 2107 1    
  2103 2102 2110 2    
  2104 2103 2104 1    
  2105 2103 2117 1    
  2106 2103 2110 am   BACKBONE|DICT|INTERRES
  2107 2104 2105 ar   
  2108 2104 2109 ar   
  2109 2105 2106 ar   
  2110 2105 2112 1    
  2111 2106 2113 1    
  2112 2106 2107 ar   
  2113 2107 2108 ar   
  2114 2108 2114 1    
  2115 2108 2109 ar   
  2116 2109 2115 1    
  2117 2110 2111 1    
  2118 2111 2119 1    
  2119 2111 2118 1    
  2120 2111 2120 1    
  2121 2121 2136 1    
  2122 2121 2127 1    
  2123 2122 2130 2    
  2124 2123 2124 1    
  2125 2123 2137 1    
  2126 2123 2130 am   BACKBONE|DICT|INTERRES
  2127 2124 2129 ar   
  2128 2124 2125 ar   
  2129 2125 2126 ar   
  2130 2125 2132 1    
  2131 2126 2127 ar   
  2132 2126 2133 1    
  2133 2127 2128 ar   
  2134 2128 2129 ar   
  2135 2128 2134 1    
  2136 2129 2135 1    
  2137 2130 2131 1    
  2138 2131 2138 1    
  2139 2131 2140 1    
  2140 2131 2139 1    
  2141 2141 2147 1    
  2142 2141 2156 1    
  2143 2142 2150 2    
  2144 2143 2150 am   BACKBONE|DICT|INTERRES
  2145 2143 2144 1    
  2146 2143 2157 1    
  2147 2144 2149 ar   
  2148 2144 2145 ar   
  2149 2145 2152 1    
  2150 2145 2146 ar   
  2151 2146 2153 1    
  2152 2146 2147 ar   
  2153 2147 2148 ar   
  2154 2148 2154 1    
  2155 2148 2149 ar   
  2156 2149 2155 1    
  2157 2150 2151 1    
  2158 2151 2158 1    
  2159 2151 2160 1    
  2160 2151 2159 1    
  2161 2161 2176 1    
  2162 2161 2167 1    
  2163 2162 2170 2    
  2164 2163 2177 1    
  2165 2163 2170 am   BACKBONE|DICT|INTERRES
  2166 2163 2164 1    
  2167 2164 2165 ar   
  2168 2164 2169 ar   
  2169 2165 2172 1    
  2170 2165 2166 ar   
  2171 2166 2167 ar   
  2172 2166 2173 1    
  2173 2167 2168 ar   
  2174 2168 2169 ar   
  2175 2168 2174 1    
  2176 2169 2175 1    
  2177 2170 2171 1    
  2178 2171 2179 1    
  2179 2171 2178 1    
  2180 2171 2180 1    
  2181 2181 2196 1    
  2182 2181 2187 1    
  2183 2182 2190 2    
  2184 2183 2184 1    
  2185 2183 2197 1    
  2186 2183 2190 am   BACKBONE|DICT|INTERRES
  2187 2184 2185 ar   
  2188 2184 2189 ar   
  2189 2185 2186 ar   
  2190 2185 2192 1    
  2191 2186 2193 1    
  2192 2186 2187 ar   
  2193 2187 2188 ar   
  2194 2188 2194 1    
  2195 2188 2189 ar   
  2196 2189 2195 1    
  2197 2190 2191 1    
  2198 2191 2199 1    
  2199 2191 2198 1    
  2200 2191 2200 1    
  2201 2201 2216 1    
  2202 2201 2207 1    
  2203 2202 2210 2    
  2204 2203 2204 1    
  2205 2203 2217 1    
  2206 2203 2210 am   BACKBONE|DICT|INTERRES
  2207 2204 2209 ar   
  2208 2204 2205 ar   
  2209 2205 2206 ar   
  2210 2205 2212 1    
  2211 2206 2207 ar   
  2212 2206 2213 1    
  2213 2207 2208 ar   
  2214 2208 2209 ar   
  2215 2208 2214 1    
  2216 2209 2215 1    
  2217 2210 2211 1    
  2218 2211 2218 1    
  2219 2211 2220 1    
  2220 2211 2219 1    
  2221 2221 2227 1    
  2222 2221 2236 1    
  2223 2222 2230 2    
  2224 2223 2230 am   BACKBONE|DICT|INTERRES
  2225 2223 2224 1    
  2226 2223 2237 1    
  2227 2224 2229 ar   
  2228 2224 2225 ar   
  2229 2225 2232 1    
  2230 2225 2226 ar   
  2231 2226 2233 1    
  2232 2226 2227 ar   
  2233 2227 2228 ar   
  2234 2228 2234 1    
  2235 2228 2229 ar   
  2236 2229 2235 1    
  2237 2230 2231 1    
  2238 2231 2238 1    
  2239 2231 2240 1    
  2240 2231 2239 1    
  2241 2241 2256 1    
  2242 2241 2247 1    
  2243 2242 2250 2    
  2244 2243 2257 1    
  2245 2243 2250 am   BACKBONE|DICT|INTERRES
  2246 2243 2244 1    
  2247 2244 2245 ar   
  2248 2244 2249 ar   
  2249 2245 2252 1    
  2250 2245 2246 ar   
  2251 2246 2247 ar   
  2252 2246 2253 1    
  2253 2247 2248 ar   
  2254 2248 2249 ar   
  2255 2248 2254 1    
  2256 2249 2255 1    
  2257 2250 2251 1    
  2258 2251 2259 1    
  2259 2251 2258 1    
  2260 2251 2260 1    
  2261 2261 2276 1    
  2262 2261 2267 1    
  2263 2262 2270 2    
  2264 2263 2264 1    
  2265 2263 2277 1    
  2266 2263 2270 am   BACKBONE|DICT|INTERRES
  2267 2264 2265 ar   
  2268 2264 2269 ar   
  2269 2265 2266 ar   
  2270 2265 2272 1    
  2271 2266 2273 1    
  2272 2266 2267 ar   
  2273 2267 2268 ar   
  2274 2268 2274 1    
  2275 2268 2269 ar   
  2276 2269 2275 1    
  2277 2270 2271 1    
  2278 2271 2279 1    
  2279 2271 2278 1    
  2280 2271 2280 1    
  2281 2281 2296 1    
  2282 2281 2287 1    
  2283 2282 2290 2    
  2284 2283 2284 1    
  2285 2283 2297 1    
  2286 2283 2290 am   BACKBONE|DICT|INTERRES
  2287 2284 2289 ar   
  2288 2284 2285 ar   
  2289 2285 2286 ar   
  2290 2285 2292 1    
  2291 2286 2287 ar   
  2292 2286 2293 1    
  2293 2287 2288 ar   
  2294 2288 2289 ar   
  2295 2288 2294 1    
  2296 2289 2295 1    
  2297 2290 2291 1    
  2298 2291 2298 1    
  2299 2291 2300 1    
  2300 2291 2299 1    
  2301 2301 2307 1    
  2302 2301 2316 1    
  2303 2302 2310 2    
  2304 2303 2310 am   BACKBONE|DICT|INTERRES
  2305 2303 2304 1    
  2306 2303 2317 1    
  2307 2304 2309 ar   
  2308 2304 2305 ar   
  2309 2305 2312 1    
  2310 2305 2306 ar   
  2311 2306 2313 1    
  2312 2306 2307 ar   
  2313 2307 2308 ar   
  2314 2308 2314 1    
  2315 2308 2309 ar   
  2316 2309 2315 1    
  2317 2310 2311 1    
  2318 2311 2318 1    
  2319 2311 2320 1    
  2320 2311 2319 1    
  2321 2321 2336 1    
  2322 2321 2327 1    
  2323 2322 2330 2    
  2324 2323 2337 1    
  2325 2323 2330 am   BACKBONE|DICT|INTERRES
  2326 2323 2324 1    
  2327 2324 2325 ar   
  2328 2324 2329 ar   
  2329 2325 2332 1    
  2330 2325 2326 ar   
  2331 2326 2327 ar   
  2332 2326 2333 1    
  2333 2327 2328 ar   
  2334 2328 2329 ar   
  2335 2328 2334 1    
  2336 2329 2335 1    
  2337 2330 2331 1    
  2338 2331 2339 1    
  2339 2331 2338 1    
  2340 2331 2340 1    
  2341 2341 2356 1    
  2342 2341 2347 1    
  2343 2342 2350 2    
  2344 2343 2344 1    
  2345 2343 2357 1    
  2346 2343 2350 am   BACKBONE|DICT|INTERRES
  2347 2344 2345 ar   
  2348 2344 2349 ar   
  2349 2345 2346 ar   
  2350 2345 2352 1    
  2351 2346 2353 1    
  2352 2346 2347 ar   
  2353 2347 2348 ar   
  2354 2348 2354 1    
  2355 2348 2349 ar   
  2356 2349 2355 1    
  2357 2350 2351 1    
  2358 2351 2359 1    
  2359 2351 2358 1    
  2360 2351 2360 1    
  2361 2361 2376 1    
  2362 2361 2367 1    
  2363 2362 2370 2    
  2364 2363 2364 1    
  2365 2363 2377 1    
  2366 2363 2370 am   BACKBONE|DICT|INTERRES
  2367 2364 2369 ar   
  2368 2364 2365 ar   
  2369 2365 2366 ar   
  2370 2365 2372 1    
  2371 2366 2367 ar   
  2372 2366 2373 1    
  2373 2367 2368 ar   
  2374 2368 2369 ar   
  2375 2368 2374 1    
  2376 2369 2375 1    
  2377 2370 2371 1    
  2378 2371 2378 1    
  2379 2371 2380 1    
  2380 2371 2379 1    
  2381 2381 2387 1    
  2382 2381 2396 1    
  2383 2382 2390 2    
  2384 2383 2390 am   BACKBONE|DICT|INTERRES
  2385 2383 2384 1    
  2386 2383 2397 1    
  2387 2384 2389 ar   
  2388 2384 2385 ar   
  2389 2385 2392 1    
  2390 2385 2386 ar   
  2391 2386 2393 1    
  2392 2386 2387 ar   
  2393 2387 2388 ar   
  2394 2388 2394 1    
  2395 2388 2389 ar   
  2396 2389 2395 1    
  2397 2390 2391 1    
  2398 2391 2398 1    
  2399 2391 2400 1    
  2400 2391 2399 1    
  2401 2401 2416 1    
  2402 2401 2407 1    
  2403 2402 2410 2    
  2404 2403 2417 1    
  2405 2403 2410 am   BACKBONE|DICT|INTERRES
  2406 2403 2404 1    
  2407 2404 2405 ar   
  2408 2404 2409 ar   
  2409 2405 2412 1    
  2410 2405 2406 ar   
  2411 2406 2407 ar   
  2412 2406 2413 1    
  2413 2407 2408 ar   
  2414 2408 2409 ar   
  2415 2408 2414 1    
  2416 2409 2415 1    
  2417 2410 2411 1    
  2418 2411 2419 1    
  2419 2411 2418 1    
  2420 2411 2420 1    
  2421 2421 2436 1    
  2422 2421 2427 1    
  2423 2422 2430 2    
  2424 2423 2424 1    
  2425 2423 2437 1    
  2426 2423 2430 am   BACKBONE|DICT|INTERRES
  2427 2424 2425 ar   
  2428 2424 2429 ar   
  2429 2425 2426 ar   
  2430 2425 2432 1    
  2431 2426 2433 1    
  2432 2426 2427 ar   
  2433 2427 2428 ar   
  2434 2428 2434 1    
  2435 2428 2429 ar   
  2436 2429 2435 1    
  2437 2430 2431 1    
  2438 2431 2439 1    
  2439 2431 2438 1    
  2440 2431 2440 1    
  2441 2441 2456 1    
  2442 2441 2447 1    
  2443 2442 2450 2    
  2444 2443 2444 1    
  2445 2443 2457 1    
  2446 2443 2450 am   BACKBONE|DICT|INTERRES
  2447 2444 2449 ar   
  2448 2444 2445 ar   
  2449 2445 2446 ar   
  2450 2445 2452 1    
  2451 2446 2447 ar   
  2452 2446 2453 1    
  2453 2447 2448 ar   
  2454 2448 2449 ar   
  2455 2448 2454 1    
  2456 2449 2455 1    
  2457 2450 2451 1    
  2458 2451 2458 1    
  2459 2451 2460 1    
  2460 2451 2459 1    
  2461 2461 2467 1    
  2462 2461 2476 1    
  2463 2462 2470 2    
  2464 2463 2470 am   BACKBONE|DICT|INTERRES
  2465 2463 2464 1    
  2466 2463 2477 1    
  2467 2464 2469 ar   
  2468 2464 2465 ar   
  2469 2465 2472 1    
  2470 2465 2466 ar   
  2471 2466 2473 1    
  2472 2466 2467 ar   
  2473 2467 2468 ar   
  2474 2468 2474 1    
  2475 2468 2469 ar   
  2476 2469 2475 1    
  2477 2470 2471 1    
  2478 2471 2478 1    
  2479 2471 2480 1    
  2480 2471 2479 1    
  2481 2481 2496 1    
  2482 2481 2487 1    
  2483 2482 2490 2    
  2484 2483 2497 1    
  2485 2483 2490 am   BACKBONE|DICT|INTERRES
  2486 2483 2484 1    
  2487 2484 2485 ar   
  2488 2484 2489 ar   
  2489 2485 2492 1    
  2490 2485 2486 ar   
  2491 2486 2487 ar   
  2492 2486 2493 1    
  2493 2487 2488 ar   
  2494 2488 2489 ar   
  2495 2488 2494 1    
  2496 2489 2495 1    
  2497 2490 2491 1    
  2498 2491 2499 1    
  2499 2491 2498 1    
  2500 2491 2500 1    
  2501 2501 2516 1    
  2502 2501 2507 1    
  2503 2502 2510 2    
  2504 2503 2504 1    
  2505 2503 2517 1    
  2506 2503 2510 am   BACKBONE|DICT|INTERRES
  2507 2504 2505 ar   
  2508 2504 2509 ar   
  2509 2505 2506 ar   
  2510 2505 2512 1    
  2511 2506 2513 1    
  2512 2506 2507 ar   
  2513 2507 2508 ar   
  2514 2508 2514 1    
  2515 2508 2509 ar   
  2516 2509 2515 1    
  2517 2510 2511 1    
  2518 2511 2519 1    
  2519 2511 2518 1    
  2520 2511 2520 1    
  2521 2521 2536 1    
  2522 2521 2527 1    
  2523 2522 2530 2    
  2524 2523 2524 1    
  2525 2523 2537 1    
  2526 2523 2530 am   BACKBONE|DICT|INTERRES
  2527 2524 2529 ar   
  2528 2524 2525 ar   
  2529 2525 2526 ar   
  2530 2525 2532 1    
  2531 2526 2527 ar   
  2532 2526 2533 1    
  2533 2527 2528 ar   
  2534 2528 2529 ar   
  2535 2528 2534 1    
  2536 2529 2535 1    
  2537 2530 2531 1    
  2538 2531 2538 1    
  2539 2531 2540 1    
  2540 2531 2539 1    
  2541 2541 2547 1    
  2542 2541 2556 1    
  2543 2542 2550 2    
  2544 2543 2550 am   BACKBONE|DICT|INTERRES
  2545 2543 2544 1    
  2546 2543 2557 1    
  2547 2544 2549 ar   
  2548 2544 2545 ar   
  2549 2545 2552 1    
  2550 2545 2546 ar   
  2551 2546 2553 1    
  2552 2546 2547 ar   
  2553 2547 2548 ar   
  2554 2548 2554 1    
  2555 2548 2549 ar   
  2556 2549 2555 1    
  2557 2550 2551 1    
  2558 2551 2558 1    
  2559 2551 2560 1    
  2560 2551 2559 1    
  2561 2561 2576 1    
  2562 2561 2567 1    
  2563 2562 2570 2    
  2564 2563 2577 1    
  2565 2563 2570 am   BACKBONE|DICT|INTERRES
  2566 2563 2564 1    
  2567 2564 2565 ar   
  2568 2564 2569 ar   
  2569 2565 2572 1    
  2570 2565 2566 ar   
  2571 2566 2567 ar   
  2572 2566 2573 1    
  2573 2567 2568 ar   
  2574 2568 2569 ar   
  2575 2568 2574 1    
  2576 2569 2575 1    
  2577 2570 2571 1    
  2578 2571 2579 1    
  2579 2571 2578 1    
  2580 2571 2580 1    
  2581 2581 2596 1    
  2582 2581 2587 1    
  2583 2582 2590 2    
  2584 2583 2584 1    
  2585 2583 2597 1    
  2586 2583 2590 am   BACKBONE|DICT|INTERRES
  2587 2584 2585 ar   
  2588 2584 2589 ar   
  2589 2585 2586 ar   
  2590 2585 2592 1    
  2591 2586 2593 1    
  2592 2586 2587 ar   
  2593 2587 2588 ar   
  2594 2588 2594 1    
  2595 2588 2589 ar   
  2596 2589 2595 1    
  2597 2590 2591 1    
  2598 2591 2599 1    
  2599 2591 2598 1    
  2600 2591 2600 1    
  2601 2601 2616 1    
  2602 2601 2607 1    
  2603 2602 2610 2    
  2604 2603 2604 1    
  2605 2603 2617 1    
  2606 2603 2610 am   BACKBONE|DICT|INTERRES
  2607 2604 2609 ar   
  2608 2604 2605 ar   
  2609 2605 2606 ar   
  2610 2605 2612 1    
  2611 2606 2607 ar   
  2612 2606 2613 1    
  2613 2607 2608 ar   
  2614 2608 2609 ar   
  2615 2608 2614 1    
  2616 2609 2615 1    
  2617 2610 2611 1    
  2618 2611 2618 1    
  2619 2611 2620 1    
  2620 2611 2619 1    
  2621 2621 2627 1    
  2622 2621 2636 1    
  2623 2622 2630 2    
  2624 2623 2630 am   BACKBONE|DICT|INTERRES
  2625 2623 2624 1    
  2626 2623 2637 1    
  2627 2624 2629 ar   
  2628 2624 2625 ar   
  2629 2625 2632 1    
  2630 2625 2626 ar   
  2631 2626 2633 1    
  2632 2626 2627 ar   
  2633 2627 2628 ar   
  2634 2628 2634 1    
  2635 2628 2629 ar   
  2636 2629 2635 1    
  2637 2630 2631 1    
  2638 2631 2638 1    
  2639 2631 2640 1    
  2640 2631 2639 1    
  2641 2641 2656 1    
  2642 2641 2647 1    
  2643 2642 2650 2    
  2644 2643 2657 1    
  2645 2643 2650 am   BACKBONE|DICT|INTERRES
  2646 2643 2644 1    
  2647 2644 2645 ar   
  2648 2644 2649 ar   
  2649 2645 2652 1    
  2650 2645 2646 ar   
  2651 2646 2647 ar   
  2652 2646 2653 1    
  2653 2647 2648 ar   
  2654 2648 2649 ar   
  2655 2648 2654 1    
  2656 2649 2655 1    
  2657 2650 2651 1    
  2658 2651 2659 1    
  2659 2651 2658 1    
  2660 2651 2660 1    
  2661 2661 2676 1    
  2662 2661 2667 1    
  2663 2662 2670 2    
  2664 2663 2664 1    
  2665 2663 2677 1    
  2666 2663 2670 am   BACKBONE|DICT|INTERRES
  2667 2664 2665 ar   
  2668 2664 2669 ar   
  2669 2665 2666 ar   
  2670 2665 2672 1    
  2671 2666 2673 1    
  2672 2666 2667 ar   
  2673 2667 2668 ar   
  2674 2668 2674 1    
  2675 2668 2669 ar   
  2676 2669 2675 1    
  2677 2670 2671 1    
  2678 2671 2679 1    
  2679 2671 2678 1    
  2680 2671 2680 1    
  2681 2681 2696 1    
  2682 2681 2687 1    
  2683 2682 2690 2    
  2684 2683 2684 1    
  2685 2683 2697 1    
  2686 2683 2690 am   BACKBONE|DICT|INTERRES
  2687 2684 2689 ar   
  2688 2684 2685 ar   
  2689 2685 2686 ar   
  2690 2685 2692 1    
  2691 2686 2687 ar   
  2692 2686 2693 1    
  2693 2687 2688 ar   
  2694 2688 2689 ar   
  2695 2688 2694 1    
  2696 2689 2695 1    
  2697 2690 2691 1    
  2698 2691 2698 1    
  2699 2691 2700 1    
  2700 2691 2699 1    
  2701 2701 2707 1    
  2702 2701 2716 1    
  2703 2702 2710 2    
  2704 2703 2710 am   BACKBONE|DICT|INTERRES
  2705 2703 2704 1    
  2706 2703 2717 1    
  2707 2704 2709 ar   
  2708 2704 2705 ar   
  2709 2705 2712 1    
  2710 2705 2706 ar   
  2711 2706 2713 1    
  2712 2706 2707 ar   
  2713 2707 2708 ar   
  2714 2708 2714 1    
  2715 2708 2709 ar   
  2716 2709 2715 1    
  2717 2710 2711 1    
  2718 2711 2718 1    
  2719 2711 2720 1    
  2720 2711 2719 1    
  2721 2721 2736 1    
  2722 2721 2727 1    
  2723 2722 2730 2    
  2724 2723 2737 1    
  2725 2723 2730 am   BACKBONE|DICT|INTERRES
  2726 2723 2724 1    
  2727 2724 2725 ar   
  2728 2724 2729 ar   
  2729 2725 2732 1    
  2730 2725 2726 ar   
  2731 2726 2727 ar   
  2732 2726 2733 1    
  2733 2727 2728 ar   
  2734 2728 2729 ar   
  2735 2728 2734 1    
  2736 2729 2735 1    
  2737 2730 2731 1    
  2738 2731 2739 1    
  2739 2731 2738 1    
  2740 2731 2740 1    
  2741 2741 2756 1    
  2742 2741 2747 1    
  2743 2742 2750 2    
  2744 2743 2744 1    
  2745 2743 2757 1    
  2746 2743 2750 am   BACKBONE|DICT|INTERRES
  2747 2744 2745 ar   
  2748 2744 2749 ar   
  2749 2745 2746 ar   
  2750 2745 2752 1    
  2751 2746 2753 1    
  2752 2746 2747 ar   
  2753 2747 2748 ar   
  2754 2748 2754 1    
  2755 2748 2749 ar   
  2756 2749 2755 1    
  2757 2750 2751 1    
  2758 2751 2759 1    
  2759 2751 2758 1    
  2760 2751 2760 1    
  2761 2761 2776 1    
  2762 2761 2767 1    
  2763 2762 2770 2    
  2764 2763 2764 1    
  2765 2763 2777 1    
  2766 2763 2770 am   BACKBONE|DICT|INTERRES
  2767 2764 2769 ar   
  2768 2764 2765 ar   
  2769 2765 2766 ar   
  2770 2765 2772 1    
  2771 2766 2767 ar   
  2772 2766 2773 1    
  2773 2767 2768 ar   
  2774 2768 2769 ar   
  2775 2768 2774 1    
  2776 2769 2775 1    
  2777 2770 2771 1    
  2778 2771 2778 1    
  2779 2771 2780 1    
  2780 2771 2779 1    
  2781 2781 2787 1    
  2782 2781 2796 1    
  2783 2782 2790 2    
  2784 2783 2790 am   BACKBONE|DICT|INTERRES
  2785 2783 2784 1    
  2786 2783 2797 1    
  2787 2784 2789 ar   
  2788 2784 2785 ar   
  2789 2785 2792 1    
  2790 2785 2786 ar   
  2791 2786 2793 1    
  2792 2786 2787 ar   
  2793 2787 2788 ar   
  2794 2788 2794 1    
  2795 2788 2789 ar   
  2796 2789 2795 1    
  2797 2790 2791 1    
  2798 2791 2798 1    
  2799 2791 2800 1    
  2800 2791 2799 1    
  2801 2801 2816 1    
  2802 2801 2807 1    
  2803 2802 2810 2    
  2804 2803 2817 1    
  2805 2803 2810 am   BACKBONE|DICT|INTERRES
  2806 2803 2804 1    
  2807 2804 2805 ar   
  2808 2804 2809 ar   
  2809 2805 2812 1    
  2810 2805 2806 ar   
  2811 2806 2807 ar   
  2812 2806 2813 1    
  2813 2807 2808 ar   
  2814 2808 2809 ar   
  2815 2808 2814 1    
  2816 2809 2815 1    
  2817 2810 2811 1    
  2818 2811 2819 1    
  2819 2811 2818 1    
  2820 2811 2820 1    
  2821 2821 2836 1    
  2822 2821 2827 1    
  2823 2822 2830 2    
  2824 2823 2824 1    
  2825 2823 2837 1    
  2826 2823 2830 am   BACKBONE|DICT|INTERRES
  2827 2824 2825 ar   
  2828 2824 2829 ar   
  2829 2825 2826 ar   
  2830 2825 2832 1    
  2831 2826 2833 1    
  2832 2826 2827 ar   
  2833 2827 2828 ar   
  2834 2828 2834 1    
  2835 2828 2829 ar   
  2836 2829 2835 1    
  2837 2830 2831 1    
  2838 2831 2839 1    
  2839 2831 2838 1    
  2840 2831 2840 1    
  2841 2841 2856 1    
  2842 2841 2847 1    
  2843 2842 2850 2    
  2844 2843 2844 1    
  2845 2843 2857 1    
  2846 2843 2850 am   BACKBONE|DICT|INTERRES
  2847 2844 2849 ar   
  2848 2844 2845 ar   
  2849 2845 2846 ar   
  2850 2845 2852 1    
  2851 2846 2847 ar   
  2852 2846 2853 1    
  2853 2847 2848 ar   
  2854 2848 2849 ar   
  2855 2848 2854 1    
  2856 2849 2855 1    
  2857 2850 2851 1    
  2858 2851 2858 1    
  2859 2851 2860 1    
  2860 2851 2859 1    
  2861 2861 2867 1    
  2862 2861 2876 1    
  2863 2862 2870 2    
  2864 2863 2870 am   BACKBONE|DICT|INTERRES
  2865 2863 2864 1    
  2866 2863 2877 1    
  2867 2864 2869 ar   
  2868 2864 2865 ar   
  2869 2865 2872 1    
  2870 2865 2866 ar   
  2871 2866 2873 1    
  2872 2866 2867 ar   
  2873 2867 2868 ar   
  2874 2868 2874 1    
  2875 2868 2869 ar   
  2876 2869 2875 1    
  2877 2870 2871 1    
  2878 2871 2878 1    
  2879 2871 2880 1    
  2880 2871 2879 1    
  2881 2881 2896 1    
  2882 2881 2887 1    
  2883 2882 2890 2    
  2884 2883 2897 1    
  2885 2883 2890 am   BACKBONE|DICT|INTERRES
  2886 2883 2884 1    
  2887 2884 2885 ar   
  2888 2884 2889 ar   
  2889 2885 2892 1    
  2890 2885 2886 ar   
  2891 2886 2887 ar   
  2892 2886 2893 1    
  2893 2887 2888 ar   
  2894 2888 2889 ar   
  2895 2888 2894 1    
  2896 2889 2895 1    
  2897 2890 2891 1    
  2898 2891 2899 1    
  2899 2891 2898 1    
  2900 2891 2900 1    
  2901 2901 2916 1    
  2902 2901 2907 1    
  2903 2902 2910 2    
  2904 2903 2904 1    
  2905 2903 2917 1    
  2906 2903 2910 am   BACKBONE|DICT|INTERRES
  2907 2904 2905 ar   
  2908 2904 2909 ar   
  2909 2905 2906 ar   
  2910 2905 2912 1    
  2911 2906 2913 1    
  2912 2906 2907 ar   
  2913 2907 2908 ar   
  2914 2908 2914 1    
  2915 2908 2909 ar   
  2916 2909 2915 1    
  2917 2910 2911 1    
  2918 2911 2919 1    
  2919 2911 2918 1    
  2920 2911 2920 1    
  2921 2921 2936 1    
  2922 2921 2927 1    
  2923 2922 2930 2    
  2924 2923 2924 1    
  2925 2923 2937 1    
  2926 2923 2930 am   BACKBONE|DICT|INTERRES
  2927 2924 2929 ar   
  2928 2924 2925 ar   
  2929 2925 2926 ar   
  2930 2925 2932 1    
  2931 2926 2927 ar   
  2932 2926 2933 1    
  2933 2927 2928 ar   
  2934 2928 2929 ar   
  2935 2928 2934 1    
  2936 2929 2935 1    
  2937 2930 2931 1    
  2938 2931 2938 1    
  2939 2931 2940 1    
  2940 2931 2939 1    
  2941 2941 2947 1    
  2942 2941 2956 1    
  2943 2942 2950 2    
  2944 2943 2950 am   BACKBONE|DICT|INTERRES
  2945 2943 2944 1    
  2946 2943 2957 1    
  2947 2944 2949 ar   
  2948 2944 2945 ar   
  2949 2945 2952 1    
  2950 2945 2946 ar   
  2951 2946 2953 1    
  2952 2946 2947 ar   
  2953 2947 2948 ar   
  2954 2948 2954 1    
  2955 2948 2949 ar   
  2956 2949 2955 1    
  2957 2950 2951 1    
  2958 2951 2958 1    
  2959 2951 2960 1    
  2960 2951 2959 1    
  2961 2961 2976 1    
  2962 2961 2967 1    
  2963 2962 2970 2    
  2964 2963 2977 1    
  2965 2963 2970 am   BACKBONE|DICT|INTERRES
  2966 2963 2964 1    
  2967 2964 2965 ar   
  2968 2964 2969 ar   
  2969 2965 2972 1    
  2970 2965 2966 ar   
  2971 2966 2967 ar   
  2972 2966 2973 1    
  2973 2967 2968 ar   
  2974 2968 2969 ar   
  2975 2968 2974 1    
  2976 2969 2975 1    
  2977 2970 2971 1    
  2978 2971 2979 1    
  2979 2971 2978 1    
  2980 2971 2980 1    
  2981 2981 2996 1    
  2982 2981 2987 1    
  2983 2982 2990 2    
  2984 2983 2984 1    
  2985 2983 2997 1    
  2986 2983 2990 am   BACKBONE|DICT|INTERRES
  2987 2984 2985 ar   
  2988 2984 2989 ar   
  2989 2985 2986 ar   
  2990 2985 2992 1    
  2991 2986 2993 1    
  2992 2986 2987 ar   
  2993 2987 2988 ar   
  2994 2988 2994 1    
  2995 2988 2989 ar   
  2996 2989 2995 1    
  2997 2990 2991 1    
  2998 2991 2999 1    
  2999 2991 2998 1    
  3000 2991 3000 1    
  3001 3001 3016 1    
  3002 3001 3007 1    
  3003 3002 3010 2    
  3004 3003 3004 1    
  3005 3003 3017 1    
  3006 3003 3010 am   BACKBONE|DICT|INTERRES
  3007 3004 3009 ar   
  3008 3004 3005 ar   
  3009 3005 3006 ar   
  3010 3005 3012 1    
  3011 3006 3007 ar   
  3012 3006 3013 1    
  3013 3007 3008 ar   
  3014 3008 3009 ar   
  3015 3008 3014 1    
  3016 3009 3015 1    
  3017 3010 3011 1    
  3018 3011 3018 1    
  3019 3011 3020 1    
  3020 3011 3019 1    
  3021 3021 3027 1    
  3022 3021 3036 1    
  3023 3022 3030 2    
  3024 3023 3030 am   BACKBONE|DICT|INTERRES
  3025 3023 3024 1    
  3026 3023 3037 1    
  3027 3024 3029 ar   
  3028 3024 3025 ar   
  3029 3025 3032 1    
  3030 3025 3026 ar   
  3031 3026 3033 1    
  3032 3026 3027 ar   
  3033 3027 3028 ar   
  3034 3028 3034 1    
  3035 3028 3029 ar   
  3036 3029 3035 1    
  3037 3030 3031 1    
  3038 3031 3038 1    
  3039 3031 3040 1    
  3040 3031 3039 1    
  3041 3041 3056 1    
  3042 3041 3047 1    
  3043 3042 3050 2    
  3044 3043 3057 1    
  3045 3043 3050 am   BACKBONE|DICT|INTERRES
  3046 3043 3044 1    
  3047 3044 3045 ar   
  3048 3044 3049 ar   
  3049 3045 3052 1    
  3050 3045 3046 ar   
  3051 3046 3047 ar   
  3052 3046 3053 1    
  3053 3047 3048 ar   
  3054 3048 3049 ar   
  3055 3048 3054 1    
  3056 3049 3055 1    
  3057 3050 3051 1    
  3058 3051 3059 1    
  3059 3051 3058 1    
  3060 3051 3060 1    
  3061 3061 3076 1    
  3062 3061 3067 1    
  3063 3062 3070 2    
  3064 3063 3064 1    
  3065 3063 3077 1    
  3066 3063 3070 am   BACKBONE|DICT|INTERRES
  3067 3064 3065 ar   
  3068 3064 3069 ar   
  3069 3065 3066 ar   
  3070 3065 3072 1    
  3071 3066 3073 1    
  3072 3066 3067 ar   
  3073 3067 3068 ar   
  3074 3068 3074 1    
  3075 3068 3069 ar   
  3076 3069 3075 1    
  3077 3070 3071 1    
  3078 3071 3079 1    
  3079 3071 3078 1    
  3080 3071 3080 1    
  3081 3081 3096 1    
  3082 3081 3087 1    
  3083 3082 3090 2    
  3084 3083 3084 1    
  3085 3083 3097 1    
  3086 3083 3090 am   BACKBONE|DICT|INTERRES
  3087 3084 3089 ar   
  3088 3084 3085 ar   
  3089 3085 3086 ar   
  3090 3085 3092 1    
  3091 3086 3087 ar   
  3092 3086 3093 1    
  3093 3087 3088 ar   
  3094 3088 3089 ar   
  3095 3088 3094 1    
  3096 3089 3095 1    
  3097 3090 3091 1    
  3098 3091 3098 1    
  3099 3091 3100 1    
  3100 3091 3099 1    
  3101 3101 3107 1    
  3102 3101 3116 1    
  3103 3102 3110 2    
  3104 3103 3110 am   BACKBONE|DICT|INTERRES
  3105 3103 3104 1    
  3106 3103 3117 1    
  3107 3104 3109 ar   
  3108 3104 3105 ar   
  3109 3105 3112 1    
  3110 3105 3106 ar   
  3111 3106 3113 1    
  3112 3106 3107 ar   
  3113 3107 3108 ar   
  3114 3108 3114 1    
  3115 3108 3109 ar   
  3116 3109 3115 1    
  3117 3110 3111 1    
  3118 3111 3118 1    
  3119 3111 3120 1    
  3120 3111 3119 1    
  3121 3121 3136 1    
  3122 3121 3127 1    
  3123 3122 3130 2    
  3124 3123 3137 1    
  3125 3123 3130 am   BACKBONE|DICT|INTERRES
  3126 3123 3124 1    
  3127 3124 3125 ar   
  3128 3124 3129 ar   
  3129 3125 3132 1    
  3130 3125 3126 ar   
  3131 3126 3127 ar   
  3132 3126 3133 1    
  3133 3127 3128 ar   
  3134 3128 3129 ar   
  3135 3128 3134 1    
  3136 3129 3135 1    
  3137 3130 3131 1    
  3138 3131 3139 1    
  3139 3131 3138 1    
  3140 3131 3140 1    
  3141 3141 3156 1    
  3142 3141 3147 1    
  3143 3142 3150 2    
  3144 3143 3144 1    
  3145 3143 3157 1    
  3146 3143 3150 am   BACKBONE|DICT|INTERRES
  3147 3144 3145 ar   
  3148 3144 3149 ar   
  3149 3145 3146 ar   
  3150 3145 3152 1    
  3151 3146 3153 1    
  3152 3146 3147 ar   
  3153 3147 3148 ar   
  3154 3148 3154 1    
  3155 3148 3149 ar   
  3156 3149 3155 1    
  3157 3150 3151 1    
  3158 3151 3159 1    
  3159 3151 3158 1    
  3160 3151 3160 1    
  3161 3161 3176 1    
  3162 3161 3167 1    
  3163 3162 3170 2    
  3164 3163 3164 1    
  3165 3163 3177 1    
  3166 3163 3170 am   BACKBONE|DICT|INTERRES
  3167 3164 3169 ar   
  3168 3164 3165 ar   
  3169 3165 3166 ar   
  3170 3165 3172 1    
  3171 3166 3167 ar   
  3172 3166 3173 1    
  3173 3167 3168 ar   
  3174 3168 3169 ar   
  3175 3168 3174 1    
  3176 3169 3175 1    
  3177 3170 3171 1    
  3178 3171 3178 1    
  3179 3171 3180 1    
  3180 3171 3179 1    
  3181 3181 3187 1    
  3182 3181 3196 1    
  3183 3182 3190 2    
  3184 3183 3190 am   BACKBONE|DICT|INTERRES
  3185 3183 3184 1    
  3186 3183 3197 1    
  3187 3184 3189 ar   
  3188 3184 3185 ar   
  3189 3185 3192 1    
  3190 3185 3186 ar   
  3191 3186 3193 1    
  3192 3186 3187 ar   
  3193 3187 3188 ar   
  3194 3188 3194 1    
  3195 3188 3189 ar   
  3196 3189 3195 1    
  3197 3190 3191 1    
  3198 3191 3198 1    
  3199 3191 3200 1    
  3200 3191 3199 1    
  3201 3201 3216 1    
  3202 3201 3207 1    
  3203 3202 3210 2    
  3204 3203 3217 1    
  3205 3203 3210 am   BACKBONE|DICT|INTERRES
  3206 3203 3204 1    
  3207 3204 3205 ar   
  3208 3204 3209 ar   
  3209 3205 3212 1    
  3210 3205 3206 ar   
  3211 3206 3207 ar   
  3212 3206 3213 1    
  3213 3207 3208 ar   
  3214 3208 3209 ar   
  3215 3208 3214 1    
  3216 3209 3215 1    
  3217 3210 3211 1    
  3218 3211 3219 1    
  3219 3211 3218 1    
  3220 3211 3220 1    
  3221 3221 3236 1    
  3222 3221 3227 1    
  3223 3222 3230 2    
  3224 3223 3224 1    
  3225 3223 3237 1    
  3226 3223 3230 am   BACKBONE|DICT|INTERRES
  3227 3224 3225 ar   
  3228 3224 3229 ar   
  3229 3225 3226 ar   
  3230 3225 3232 1    
  3231 3226 3233 1    
  3232 3226 3227 ar   
  3233 3227 3228 ar   
  3234 3228 3234 1    
  3235 3228 3229 ar   
  3236 3229 3235 1    
  3237 3230 3231 1    
  3238 3231 3239 1    
  3239 3231 3238 1    
  3240 3231 3240 1    
  3241 3241 3256 1    
  3242 3241 3247 1    
  3243 3242 3250 2    
  3244 3243 3244 1    
  3245 3243 3257 1    
  3246 3243 3250 am   BACKBONE|DICT|INTERRES
  3247 3244 3249 ar   
  3248 3244 3245 ar   
  3249 3245 3246 ar   
  3250 3245 3252 1    
  3251 3246 3247 ar   
  3252 3246 3253 1    
  3253 3247 3248 ar   
  3254 3248 3249 ar   
  3255 3248 3254 1    
  3256 3249 3255 1    
  3257 3250 3251 1    
  3258 3251 3258 1    
  3259 3251 3260 1    
  3260 3251 3259 1    
  3261 3261 3267 1    
  3262 3261 3276 1    
  3263 3262 3270 2    
  3264 3263 3270 am   BACKBONE|DICT|INTERRES
  3265 3263 3264 1    
  3266 3263 3277 1    
  3267 3264 3269 ar   
  3268 3264 3265 ar   
  3269 3265 3272 1    
  3270 3265 3266 ar   
  3271 3266 3273 1    
  3272 3266 3267 ar   
  3273 3267 3268 ar   
  3274 3268 3274 1    
  3275 3268 3269 ar   
  3276 3269 3275 1    
  3277 3270 3271 1    
  3278 3271 3278 1    
  3279 3271 3280 1    
  3280 3271 3279 1    
  3281 3281 3296 1    
  3282 3281 3287 1    
  3283 3282 3290 2    
  3284 3283 3297 1    
  3285 3283 3290 am   BACKBONE|DICT|INTERRES
  3286 3283 3284 1    
  3287 3284 3285 ar   
  3288 3284 3289 ar   
  3289 3285 3292 1    
  3290 3285 3286 ar   
  3291 3286 3287 ar   
  3292 3286 3293 1    
  3293 3287 3288 ar   
  3294 3288 3289 ar   
  3295 3288 3294 1    
  3296 3289 3295 1    
  3297 3290 3291 1    
  3298 3291 3299 1    
  3299 3291 3298 1    
  3300 3291 3300 1    
  3301 3301 3316 1    
  3302 3301 3307 1    
  3303 3302 3310 2    
  3304 3303 3304 1    
  3305 3303 3317 1    
  3306 3303 3310 am   BACKBONE|DICT|INTERRES
  3307 3304 3305 ar   
  3308 3304 3309 ar   
  3309 3305 3306 ar   
  3310 3305 3312 1    
  3311 3306 3313 1    
  3312 3306 3307 ar   
  3313 3307 3308 ar   
  3314 3308 3314 1    
  3315 3308 3309 ar   
  3316 3309 3315 1    
  3317 3310 3311 1    
  3318 3311 3319 1    
  3319 3311 3318 1    
  3320 3311 3320 1    
  3321 3321 3336 1    
  3322 3321 3327 1    
  3323 3322 3330 2    
  3324 3323 3324 1    
  3325 3323 3337 1    
  3326 3323 3330 am   BACKBONE|DICT|INTERRES
  3327 3324 3329 ar   
  3328 3324 3325 ar   
  3329 3325 3326 ar   
  3330 3325 3332 1    
  3331 3326 3327 ar   
  3332 3326 3333 1    
  3333 3327 3328 ar   
  3334 3328 3329 ar   
  3335 3328 3334 1    
  3336 3329 3335 1    
  3337 3330 3331 1    
  3338 3331 3338 1    
  3339 3331 3340 1    
  3340 3331 3339 1    
  3341 3341 3347 1    
  3342 3341 3356 1    
  3343 3342 3350 2    
  3344 3343 3350 am   BACKBONE|DICT|INTERRES
  3345 3343 3344 1    
  3346 3343 3357 1    
  3347 3344 3349 ar   
  3348 3344 3345 ar   
  3349 3345 3352 1    
  3350 3345 3346 ar   
  3351 3346 3353 1    
  3352 3346 3347 ar   
  3353 3347 3348 ar   
  3354 3348 3354 1    
  3355 3348 3349 ar   
  3356 3349 3355 1    
  3357 3350 3351 1    
  3358 3351 3358 1    
  3359 3351 3360 1    
  3360 3351 3359 1    
  3361 3361 3376 1    
  3362 3361 3367 1    
  3363 3362 3370 2    
  3364 3363 3377 1    
  3365 3363 3370 am   BACKBONE|DICT|INTERRES
  3366 3363 3364 1    
  3367 3364 3365 ar   
  3368 3364 3369 ar   
  3369 3365 3372 1    
  3370 3365 3366 ar   
  3371 3366 3367 ar   
  3372 3366 3373 1    
  3373 3367 3368 ar   
  3374 3368 3369 ar   
  3375 3368 3374 1    
  3376 3369 3375 1    
  3377 3370 3371 1    
  3378 3371 3379 1    
  3379 3371 3378 1    
  3380 3371 3380 1    
  3381 3381 3396 1    
  3382 3381 3387 1    
  3383 3382 3390 2    
  3384 3383 3384 1    
  3385 3383 3397 1    
  3386 3383 3390 am   BACKBONE|DICT|INTERRES
  3387 3384 3385 ar   
  3388 3384 3389 ar   
  3389 3385 3386 ar   
  3390 3385 3392 1    
  3391 3386 3393 1    
  3392 3386 3387 ar   
  3393 3387 3388 ar   
  3394 3388 3394 1    
  3395 3388 3389 ar   
  3396 3389 3395 1    
  3397 3390 3391 1    
  3398 3391 3399 1    
  3399 3391 3398 1    
  3400 3391 3400 1    
  3401 3401 3416 1    
  3402 3401 3407 1    
  3403 3402 3410 2    
  3404 3403 3404 1    
  3405 3403 3417 1    
  3406 3403 3410 am   BACKBONE|DICT|INTERRES
  3407 3404 3409 ar   
  3408 3404 3405 ar   
  3409 3405 3406 ar   
  3410 3405 3412 1    
  3411 3406 3407 ar   
  3412 3406 3413 1    
  3413 3407 3408 ar   
  3414 3408 3409 ar   
  3415 3408 3414 1    
  3416 3409 3415 1    
  3417 3410 3411 1    
  3418 3411 3418 1    
  3419 3411 3420 1    
  3420 3411 3419 1    
  3421 3421 3427 1    
  3422 3421 3436 1    
  3423 3422 3430 2    
  3424 3423 3430 am   BACKBONE|DICT|INTERRES
  3425 3423 3424 1    
  3426 3423 3437 1    
  3427 3424 3429 ar   
  3428 3424 3425 ar   
  3429 3425 3432 1    
  3430 3425 3426 ar   
  3431 3426 3433 1    
  3432 3426 3427 ar   
  3433 3427 3428 ar   
  3434 3428 3434 1    
  3435 3428 3429 ar   
  3436 3429 3435 1    
  3437 3430 3431 1    
  3438 3431 3438 1    
  3439 3431 3440 1    
  3440 3431 3439 1    
  3441 3441 3456 1    
  3442 3441 3447 1    
  3443 3442 3450 2    
  3444 3443 3457 1    
  3445 3443 3450 am   BACKBONE|DICT|INTERRES
  3446 3443 3444 1    
  3447 3444 3445 ar   
  3448 3444 3449 ar   
  3449 3445 3452 1    
  3450 3445 3446 ar   
  3451 3446 3447 ar   
  3452 3446 3453 1    
  3453 3447 3448 ar   
  3454 3448 3449 ar   
  3455 3448 3454 1    
  3456 3449 3455 1    
  3457 3450 3451 1    
  3458 3451 3459 1    
  3459 3451 3458 1    
  3460 3451 3460 1    
  3461 3461 3476 1    
  3462 3461 3467 1    
  3463 3462 3470 2    
  3464 3463 3464 1    
  3465 3463 3477 1    
  3466 3463 3470 am   BACKBONE|DICT|INTERRES
  3467 3464 3465 ar   
  3468 3464 3469 ar   
  3469 3465 3466 ar   
  3470 3465 3472 1    
  3471 3466 3473 1    
  3472 3466 3467 ar   
  3473 3467 3468 ar   
  3474 3468 3474 1    
  3475 3468 3469 ar   
  3476 3469 3475 1    
  3477 3470 3471 1    
  3478 3471 3479 1    
  3479 3471 3478 1    
  3480 3471 3480 1    
  3481 3481 3496 1    
  3482 3481 3487 1    
  3483 3482 3490 2    
  3484 3483 3484 1    
  3485 3483 3497 1    
  3486 3483 3490 am   BACKBONE|DICT|INTERRES
  3487 3484 3489 ar   
  3488 3484 3485 ar   
  3489 3485 3486 ar   
  3490 3485 3492 1    
  3491 3486 3487 ar   
  3492 3486 3493 1    
  3493 3487 3488 ar   
  3494 3488 3489 ar   
  3495 3488 3494 1    
  3496 3489 3495 1    
  3497 3490 3491 1    
  3498 3491 3498 1    
  3499 3491 3500 1    
  3500 3491 3499 1    
  3501 3501 3507 1    
  3502 3501 3516 1    
  3503 3502 3510 2    
  3504 3503 3510 am   BACKBONE|DICT|INTERRES
  3505 3503 3504 1    
  3506 3503 3517 1    
  3507 3504 3509 ar   
  3508 3504 3505 ar   
  3509 3505 3512 1    
  3510 3505 3506 ar   
  3511 3506 3513 1    
  3512 3506 3507 ar   
  3513 3507 3508 ar   
  3514 3508 3514 1    
  3515 3508 3509 ar   
  3516 3509 3515 1    
  3517 3510 3511 1    
  3518 3511 3518 1    
  3519 3511 3520 1    
  3520 3511 3519 1    
  3521 3521 3536 1    
  3522 3521 3527 1    
  3523 3522 3530 2    
  3524 3523 3537 1    
  3525 3523 3530 am   BACKBONE|DICT|INTERRES
  3526 3523 3524 1    
  3527 3524 3525 ar   
  3528 3524 3529 ar   
  3529 3525 3532 1    
  3530 3525 3526 ar   
  3531 3526 3527 ar   
  3532 3526 3533 1    
  3533 3527 3528 ar   
  3534 3528 3529 ar   
  3535 3528 3534 1    
  3536 3529 3535 1    
  3537 3530 3531 1    
  3538 3531 3539 1    
  3539 3531 3538 1    
  3540 3531 3540 1    
  3541 3541 3556 1    
  3542 3541 3547 1    
  3543 3542 3550 2    
  3544 3543 3544 1    
  3545 3543 3557 1    
  3546 3543 3550 am   BACKBONE|DICT|INTERRES
  3547 3544 3545 ar   
  3548 3544 3549 ar   
  3549 3545 3546 ar   
  3550 3545 3552 1    
  3551 3546 3553 1    
  3552 3546 3547 ar   
  3553 3547 3548 ar   
  3554 3548 3554 1    
  3555 3548 3549 ar   
  3556 3549 3555 1    
  3557 3550 3551 1    
  3558 3551 3559 1    
  3559 3551 3558 1    
  3560 3551 3560 1    
  3561 3561 3576 1    
  3562 3561 3567 1    
  3563 3562 3570 2    
  3564 3563 3564 1    
  3565 3563 3577 1    
  3566 3563 3570 am   BACKBONE|DICT|INTERRES
  3567 3564 3569 ar   
  3568 3564 3565 ar   
  3569 3565 3566 ar   
  3570 3565 3572 1    
  3571 3566 3567 ar   
  3572 3566 3573 1    
  3573 3567 3568 ar   
  3574 3568 3569 ar   
  3575 3568 3574 1    
  3576 3569 3575 1    
  3577 3570 3571 1    
  3578 3571 3578 1    
  3579 3571 3580 1    
  3580 3571 3579 1    
  3581 3581 3587 1    
  3582 3581 3596 1    
  3583 3582 3590 2    
  3584 3583 3590 am   BACKBONE|DICT|INTERRES
  3585 3583 3584 1    
  3586 3583 3597 1    
  3587 3584 3589 ar   
  3588 3584 3585 ar   
  3589 3585 3592 1    
  3590 3585 3586 ar   
  3591 3586 3593 1    
  3592 3586 3587 ar   
  3593 3587 3588 ar   
  3594 3588 3594 1    
  3595 3588 3589 ar   
  3596 3589 3595 1    
  3597 3590 3591 1    
  3598 3591 3598 1    
  3599 3591 3600 1    
  3600 3591 3599 1    
  3601 3601 3616 1    
  3602 3601 3607 1    
  3603 3602 3610 2    
  3604 3603 3617 1    
  3605 3603 3610 am   BACKBONE|DICT|INTERRES
  3606 3603 3604 1    
  3607 3604 3605 ar   
  3608 3604 3609 ar   
  3609 3605 3612 1    
  3610 3605 3606 ar   
  3611 3606 3607 ar   
  3612 3606 3613 1    
  3613 3607 3608 ar   
  3614 3608 3609 ar   
  3615 3608 3614 1    
  3616 3609 3615 1    
  3617 3610 3611 1    
  3618 3611 3619 1    
  3619 3611 3618 1    
  3620 3611 3620 1    
  3621 3621 3636 1    
  3622 3621 3627 1    
  3623 3622 3630 2    
  3624 3623 3624 1    
  3625 3623 3637 1    
  3626 3623 3630 am   BACKBONE|DICT|INTERRES
  3627 3624 3625 ar   
  3628 3624 3629 ar   
  3629 3625 3626 ar   
  3630 3625 3632 1    
  3631 3626 3633 1    
  3632 3626 3627 ar   
  3633 3627 3628 ar   
  3634 3628 3634 1    
  3635 3628 3629 ar   
  3636 3629 3635 1    
  3637 3630 3631 1    
  3638 3631 3639 1    
  3639 3631 3638 1    
  3640 3631 3640 1    
  3641 3641 3656 1    
  3642 3641 3647 1    
  3643 3642 3650 2    
  3644 3643 3644 1    
  3645 3643 3657 1    
  3646 3643 3650 am   BACKBONE|DICT|INTERRES
  3647 3644 3649 ar   
  3648 3644 3645 ar   
  3649 3645 3646 ar   
  3650 3645 3652 1    
  3651 3646 3647 ar   
  3652 3646 3653 1    
  3653 3647 3648 ar   
  3654 3648 3649 ar   
  3655 3648 3654 1    
  3656 3649 3655 1    
  3657 3650 3651 1    
  3658 3651 3658 1    
  3659 3651 3660 1    
  3660 3651 3659 1    
  3661 3661 3667 1    
  3662 3661 3676 1    
  3663 3662 3670 2    
  3664 3663 3670 am   BACKBONE|DICT|INTERRES
  3665 3663 3664 1    
  3666 3663 3677 1    
  3667 3664 3669 ar   
  3668 3664 3665 ar   
  3669 3665 3672 1    
  3670 3665 3666 ar   
  3671 3666 3673 1    
  3672 3666 3667 ar   
  3673 3667 3668 ar   
  3674 3668 3674 1    
  3675 3668 3669 ar   
  3676 3669 3675 1    
  3677 3670 3671 1    
  3678 3671 3678 1    
  3679 3671 3680 1    
  3680 3671 3679 1    
  3681 3681 3696 1    
  3682 3681 3687 1    
  3683 3682 3690 2    
  3684 3683 3697 1    
  3685 3683 3690 am   BACKBONE|DICT|INTERRES
  3686 3683 3684 1    
  3687 3684 3685 ar   
  3688 3684 3689 ar   
  3689 3685 3692 1    
  3690 3685 3686 ar   
  3691 3686 3687 ar   
  3692 3686 3693 1    
  3693 3687 3688 ar   
  3694 3688 3689 ar   
  3695 3688 3694 1    
  3696 3689 3695 1    
  3697 3690 3691 1    
  3698 3691 3699 1    
  3699 3691 3698 1    
  3700 3691 3700 1    
  3701 3701 3716 1    
  3702 3701 3707 1    
  3703 3702 3710 2    
  3704 3703 3704 1    
  3705 3703 3717 1    
  3706 3703 3710 am   BACKBONE|DICT|INTERRES
  3707 3704 3705 ar   
  3708 3704 3709 ar   
  3709 3705 3706 ar   
  3710 3705 3712 1    
  3711 3706 3713 1    
  3712 3706 3707 ar   
  3713 3707 3708 ar   
  3714 3708 3714 1    
  3715 3708 3709 ar   
  3716 3709 3715 1    
  3717 3710 3711 1    
  3718 3711 3719 1    
  3719 3711 3718 1    
  3720 3711 3720 1    
  3721 3721 3736 1    
  3722 3721 3727 1    
  3723 3722 3730 2    
  3724 3723 3724 1    
  3725 3723 3737 1    
  3726 3723 3730 am   BACKBONE|DICT|INTERRES
  3727 3724 3729 ar   
  3728 3724 3725 ar   
  3729 3725 3726 ar   
  3730 3725 3732 1    
  3731 3726 3727 ar   
  3732 3726 3733 1    
  3733 3727 3728 ar   
  3734 3728 3729 ar   
  3735 3728 3734 1    
  3736 3729 3735 1    
  3737 3730 3731 1    
  3738 3731 3738 1    
  3739 3731 3740 1    
  3740 3731 3739 1    
  3741 3741 3747 1    
  3742 3741 3756 1    
  3743 3742 3750 2    
  3744 3743 3750 am   BACKBONE|DICT|INTERRES
  3745 3743 3744 1    
  3746 3743 3757 1    
  3747 3744 3749 ar   
  3748 3744 3745 ar   
  3749 3745 3752 1    
  3750 3745 3746 ar   
  3751 3746 3753 1    
  3752 3746 3747 ar   
  3753 3747 3748 ar   
  3754 3748 3754 1    
  3755 3748 3749 ar   
  3756 3749 3755 1    
  3757 3750 3751 1    
  3758 3751 3758 1    
  3759 3751 3760 1    
  3760 3751 3759 1    
  3761 3761 3776 1    
  3762 3761 3767 1    
  3763 3762 3770 2    
  3764 3763 3777 1    
  3765 3763 3770 am   BACKBONE|DICT|INTERRES
  3766 3763 3764 1    
  3767 3764 3765 ar   
  3768 3764 3769 ar   
  3769 3765 3772 1    
  3770 3765 3766 ar   
  3771 3766 3767 ar   
  3772 3766 3773 1    
  3773 3767 3768 ar   
  3774 3768 3769 ar   
  3775 3768 3774 1    
  3776 3769 3775 1    
  3777 3770 3771 1    
  3778 3771 3779 1    
  3779 3771 3778 1    
  3780 3771 3780 1    
  3781 3781 3796 1    
  3782 3781 3787 1    
  3783 3782 3790 2    
  3784 3783 3784 1    
  3785 3783 3797 1    
  3786 3783 3790 am   BACKBONE|DICT|INTERRES
  3787 3784 3785 ar   
  3788 3784 3789 ar   
  3789 3785 3786 ar   
  3790 3785 3792 1    
  3791 3786 3793 1    
  3792 3786 3787 ar   
  3793 3787 3788 ar   
  3794 3788 3794 1    
  3795 3788 3789 ar   
  3796 3789 3795 1    
  3797 3790 3791 1    
  3798 3791 3799 1    
  3799 3791 3798 1    
  3800 3791 3800 1    
  3801 3801 3816 1    
  3802 3801 3807 1    
  3803 3802 3810 2    
  3804 3803 3804 1    
  3805 3803 3817 1    
  3806 3803 3810 am   BACKBONE|DICT|INTERRES
  3807 3804 3809 ar   
  3808 3804 3805 ar   
  3809 3805 3806 ar   
  3810 3805 3812 1    
  3811 3806 3807 ar   
  3812 3806 3813 1    
  3813 3807 3808 ar   
  3814 3808 3809 ar   
  3815 3808 3814 1    
  3816 3809 3815 1    
  3817 3810 3811 1    
  3818 3811 3818 1    
  3819 3811 3820 1    
  3820 3811 3819 1    
  3821 3821 3827 1    
  3822 3821 3836 1    
  3823 3822 3830 2    
  3824 3823 3830 am   BACKBONE|DICT|INTERRES
  3825 3823 3824 1    
  3826 3823 3837 1    
  3827 3824 3829 ar   
  3828 3824 3825 ar   
  3829 3825 3832 1    
  3830 3825 3826 ar   
  3831 3826 3833 1    
  3832 3826 3827 ar   
  3833 3827 3828 ar   
  3834 3828 3834 1    
  3835 3828 3829 ar   
  3836 3829 3835 1    
  3837 3830 3831 1    
  3838 3831 3838 1    
  3839 3831 3840 1    
  3840 3831 3839 1    
  3841 3841 3856 1    
  3842 3841 3847 1    
  3843 3842 3850 2    
  3844 3843 3857 1    
  3845 3843 3850 am   BACKBONE|DICT|INTERRES
  3846 3843 3844 1    
  3847 3844 3845 ar   
  3848 3844 3849 ar   
  3849 3845 3852 1    
  3850 3845 3846 ar   
  3851 3846 3847 ar   
  3852 3846 3853 1    
  3853 3847 3848 ar   
  3854 3848 3849 ar   
  3855 3848 3854 1    
  3856 3849 3855 1    
  3857 3850 3851 1    
  3858 3851 3859 1    
  3859 3851 3858 1    
  3860 3851 3860 1    
  3861 3861 3876 1    
  3862 3861 3867 1    
  3863 3862 3870 2    
  3864 3863 3864 1    
  3865 3863 3877 1    
  3866 3863 3870 am   BACKBONE|DICT|INTERRES
  3867 3864 3865 ar   
  3868 3864 3869 ar   
  3869 3865 3866 ar   
  3870 3865 3872 1    
  3871 3866 3873 1    
  3872 3866 3867 ar   
  3873 3867 3868 ar   
  3874 3868 3874 1    
  3875 3868 3869 ar   
  3876 3869 3875 1    
  3877 3870 3871 1    
  3878 3871 3879 1    
  3879 3871 3878 1    
  3880 3871 3880 1    
  3881 3881 3896 1    
  3882 3881 3887 1    
  3883 3882 3890 2    
  3884 3883 3884 1    
  3885 3883 3897 1    
  3886 3883 3890 am   BACKBONE|DICT|INTERRES
  3887 3884 3889 ar   
  3888 3884 3885 ar   
  3889 3885 3886 ar   
  3890 3885 3892 1    
  3891 3886 3887 ar   
  3892 3886 3893 1    
  3893 3887 3888 ar   
  3894 3888 3889 ar   
  3895 3888 3894 1    
  3896 3889 3895 1    
  3897 3890 3891 1    
  3898 3891 3898 1    
  3899 3891 3900 1    
  3900 3891 3899 1    
  3901 3901 3907 1    
  3902 3901 3916 1    
  3903 3902 3910 2    
  3904 3903 3910 am   BACKBONE|DICT|INTERRES
  3905 3903 3904 1    
  3906 3903 3917 1    
  3907 3904 3909 ar   
  3908 3904 3905 ar   
  3909 3905 3912 1    
  3910 3905 3906 ar   
  3911 3906 3913 1    
  3912 3906 3907 ar   
  3913 3907 3908 ar   
  3914 3908 3914 1    
  3915 3908 3909 ar   
  3916 3909 3915 1    
  3917 3910 3911 1    
  3918 3911 3918 1    
  3919 3911 3920 1    
  3920 3911 3919 1    
  3921 3921 3936 1    
  3922 3921 3927 1    
  3923 3922 3930 2    
  3924 3923 3937 1    
  3925 3923 3930 am   BACKBONE|DICT|INTERRES
  3926 3923 3924 1    
  3927 3924 3925 ar   
  3928 3924 3929 ar   
  3929 3925 3932 1    
  3930 3925 3926 ar   
  3931 3926 3927 ar   
  3932 3926 3933 1    
  3933 3927 3928 ar   
  3934 3928 3929 ar   
  3935 3928 3934 1    
  3936 3929 3935 1    
  3937 3930 3931 1    
  3938 3931 3939 1    
  3939 3931 3938 1    
  3940 3931 3940 1    
  3941 3941 3956 1    
  3942 3941 3947 1    
  3943 3942 3950 2    
  3944 3943 3944 1    
  3945 3943 3957 1    
  3946 3943 3950 am   BACKBONE|DICT|INTERRES
  3947 3944 3945 ar   
  3948 3944 3949 ar   
  3949 3945 3946 ar   
  3950 3945 3952 1    
  3951 3946 3953 1    
  3952 3946 3947 ar   
  3953 3947 3948 ar   
  3954 3948 3954 1    
  3955 3948 3949 ar   
  3956 3949 3955 1    
  3957 3950 3951 1    
  3958 3951 3959 1    
  3959 3951 3958 1    
  3960 3951 3960 1    
  3961 3961 3976 1    
  3962 3961 3967 1    
  3963 3962 3970 2    
  3964 3963 3964 1    
  3965 3963 3977 1    
  3966 3963 3970 am   BACKBONE|DICT|INTERRES
  3967 3964 3969 ar   
  3968 3964 3965 ar   
  3969 3965 3966 ar   
  3970 3965 3972 1    
  3971 3966 3967 ar   
  3972 3966 3973 1    
  3973 3967 3968 ar   
  3974 3968 3969 ar   
  3975 3968 3974 1    
  3976 3969 3975 1    
  3977 3970 3971 1    
  3978 3971 3978 1    
  3979 3971 3980 1    
  3980 3971 3979 1    
  3981 3981 3987 1    
  3982 3981 3996 1    
  3983 3982 3990 2    
  3984 3983 3990 am   BACKBONE|DICT|INTERRES
  3985 3983 3984 1    
  3986 3983 3997 1    
  3987 3984 3989 ar   
  3988 3984 3985 ar   
  3989 3985 3992 1    
  3990 3985 3986 ar   
  3991 3986 3993 1    
  3992 3986 3987 ar   
  3993 3987 3988 ar   
  3994 3988 3994 1    
  3995 3988 3989 ar   
  3996 3989 3995 1    
  3997 3990 3991 1    
  3998 3991 3998 1    
  3999 3991 4000 1    
  4000 3991 3999 1    
  4001 4001 4016 1    
  4002 4001 4007 1    
  4003 4002 4010 2    
  4004 4003 4017 1    
  4005 4003 4010 am   BACKBONE|DICT|INTERRES
  4006 4003 4004 1    
  4007 4004 4005 ar   
  4008 4004 4009 ar   
  4009 4005 4012 1    
  4010 4005 4006 ar   
  4011 4006 4007 ar   
  4012 4006 4013 1    
  4013 4007 4008 ar   
  4014 4008 4009 ar   
  4015 4008 4014 1    
  4016 4009 4015 1    
  4017 4010 4011 1    
  4018 4011 4019 1    
  4019 4011 4018 1    
  4020 4011 4020 1    
  4021 4021 4036 1    
  4022 4021 4027 1    
  4023 4022 4030 2    
  4024 4023 4024 1    
  4025 4023 4037 1    
  4026 4023 4030 am   BACKBONE|DICT|INTERRES
  4027 4024 4025 ar   
  4028 4024 4029 ar   
  4029 4025 4026 ar   
  4030 4025 4032 1    
  4031 4026 4033 1    
  4032 4026 4027 ar   
  4033 4027 4028 ar   
  4034 4028 4034 1    
  4035 4028 4029 ar   
  4036 4029 4035 1    
  4037 4030 4031 1    
  4038 4031 4039 1    
  4039 4031 4038 1    
  4040 4031 4040 1    
  4041 4041 4056 1    
  4042 4041 4047 1    
  4043 4042 4050 2    
  4044 4043 4044 1    
  4045 4043 4057 1    
  4046 4043 4050 am   BACKBONE|DICT|INTERRES
  4047 4044 4049 ar   
  4048 4044 4045 ar   
  4049 4045 4046 ar   
  4050 4045 4052 1    
  4051 4046 4047 ar   
  4052 4046 4053 1    
  4053 4047 4048 ar   
  4054 4048 4049 ar   
  4055 4048 4054 1    
  4056 4049 4055 1    
  4057 4050 4051 1    
  4058 4051 4058 1    
  4059 4051 4060 1    
  4060 4051 4059 1    
  4061 4061 4067 1    
  4062 4061 4076 1    
  4063 4062 4070 2    
  4064 4063 4070 am   BACKBONE|DICT|INTERRES
  4065 4063 4064 1    
  4066 4063 4077 1    
  4067 4064 4069 ar   
  4068 4064 4065 ar   
  4069 4065 4072 1    
  4070 4065 4066 ar   
  4071 4066 4073 1    
  4072 4066 4067 ar   
  4073 4067 4068 ar   
  4074 4068 4074 1    
  4075 4068 4069 ar   
  4076 4069 4075 1    
  4077 4070 4071 1    
  4078 4071 4078 1    
  4079 4071 4080 1    
  4080 4071 4079 1    
  4081 4081 4096 1    
  4082 4081 4087 1    
  4083 4082 4090 2    
  4084 4083 4097 1    
  4085 4083 4090 am   BACKBONE|DICT|INTERRES
  4086 4083 4084 1    
  4087 4084 4085 ar   
  4088 4084 4089 ar   
  4089 4085 4092 1    
  4090 4085 4086 ar   
  4091 4086 4087 ar   
  4092 4086 4093 1    
  4093 4087 4088 ar   
  4094 4088 4089 ar   
  4095 4088 4094 1    
  4096 4089 4095 1    
  4097 4090 4091 1    
  4098 4091 4099 1    
  4099 4091 4098 1    
  4100 4091 4100 1    
  4101 4101 4116 1    
  4102 4101 4107 1    
  4103 4102 4110 2    
  4104 4103 4104 1    
  4105 4103 4117 1    
  4106 4103 4110 am   BACKBONE|DICT|INTERRES
  4107 4104 4105 ar   
  4108 4104 4109 ar   
  4109 4105 4106 ar   
  4110 4105 4112 1    
  4111 4106 4113 1    
  4112 4106 4107 ar   
  4113 4107 4108 ar   
  4114 4108 4114 1    
  4115 4108 4109 ar   
  4116 4109 4115 1    
  4117 4110 4111 1    
  4118 4111 4119 1    
  4119 4111 4118 1    
  4120 4111 4120 1    
  4121 4121 4136 1    
  4122 4121 4127 1    
  4123 4122 4130 2    
  4124 4123 4124 1    
  4125 4123 4137 1    
  4126 4123 4130 am   BACKBONE|DICT|INTERRES
  4127 4124 4129 ar   
  4128 4124 4125 ar   
  4129 4125 4126 ar   
  4130 4125 4132 1    
  4131 4126 4127 ar   
  4132 4126 4133 1    
  4133 4127 4128 ar   
  4134 4128 4129 ar   
  4135 4128 4134 1    
  4136 4129 4135 1    
  4137 4130 4131 1    
  4138 4131 4138 1    
  4139 4131 4140 1    
  4140 4131 4139 1    
  4141 4141 4147 1    
  4142 4141 4156 1    
  4143 4142 4150 2    
  4144 4143 4150 am   BACKBONE|DICT|INTERRES
  4145 4143 4144 1    
  4146 4143 4157 1    
  4147 4144 4149 ar   
  4148 4144 4145 ar   
  4149 4145 4152 1    
  4150 4145 4146 ar   
  4151 4146 4153 1    
  4152 4146 4147 ar   
  4153 4147 4148 ar   
  4154 4148 4154 1    
  4155 4148 4149 ar   
  4156 4149 4155 1    
  4157 4150 4151 1    
  4158 4151 4158 1    
  4159 4151 4160 1    
  4160 4151 4159 1    
  4161 4161 4176 1    
  4162 4161 4167 1    
  4163 4162 4170 2    
  4164 4163 4177 1    
  4165 4163 4170 am   BACKBONE|DICT|INTERRES
  4166 4163 4164 1    
  4167 4164 4165 ar   
  4168 4164 4169 ar   
  4169 4165 4172 1    
  4170 4165 4166 ar   
  4171 4166 4167 ar   
  4172 4166 4173 1    
  4173 4167 4168 ar   
  4174 4168 4169 ar   
  4175 4168 4174 1    
  4176 4169 4175 1    
  4177 4170 4171 1    
  4178 4171 4179 1    
  4179 4171 4178 1    
  4180 4171 4180 1    
  4181 4181 4196 1    
  4182 4181 4187 1    
  4183 4182 4190 2    
  4184 4183 4184 1    
  4185 4183 4197 1    
  4186 4183 4190 am   BACKBONE|DICT|INTERRES
  4187 4184 4185 ar   
  4188 4184 4189 ar   
  4189 4185 4186 ar   
  4190 4185 4192 1    
  4191 4186 4193 1    
  4192 4186 4187 ar   
  4193 4187 4188 ar   
  4194 4188 4194 1    
  4195 4188 4189 ar   
  4196 4189 4195 1    
  4197 4190 4191 1    
  4198 4191 4199 1    
  4199 4191 4198 1    
  4200 4191 4200 1    
  4201 4201 4216 1    
  4202 4201 4207 1    
  4203 4202 4210 2    
  4204 4203 4204 1    
  4205 4203 4217 1    
  4206 4203 4210 am   BACKBONE|DICT|INTERRES
  4207 4204 4209 ar   
  4208 4204 4205 ar   
  4209 4205 4206 ar   
  4210 4205 4212 1    
  4211 4206 4207 ar   
  4212 4206 4213 1    
  4213 4207 4208 ar   
  4214 4208 4209 ar   
  4215 4208 4214 1    
  4216 4209 4215 1    
  4217 4210 4211 1    
  4218 4211 4218 1    
  4219 4211 4220 1    
  4220 4211 4219 1    
  4221 4221 4227 1    
  4222 4221 4236 1    
  4223 4222 4230 2    
  4224 4223 4230 am   BACKBONE|DICT|INTERRES
  4225 4223 4224 1    
  4226 4223 4237 1    
  4227 4224 4229 ar   
  4228 4224 4225 ar   
  4229 4225 4232 1    
  4230 4225 4226 ar   
  4231 4226 4233 1    
  4232 4226 4227 ar   
  4233 4227 4228 ar   
  4234 4228 4234 1    
  4235 4228 4229 ar   
  4236 4229 4235 1    
  4237 4230 4231 1    
  4238 4231 4238 1    
  4239 4231 4240 1    
  4240 4231 4239 1    
  4241 4241 4256 1    
  4242 4241 4247 1    
  4243 4242 4250 2    
  4244 4243 4257 1    
  4245 4243 4250 am   BACKBONE|DICT|INTERRES
  4246 4243 4244 1    
  4247 4244 4245 ar   
  4248 4244 4249 ar   
  4249 4245 4252 1    
  4250 4245 4246 ar   
  4251 4246 4247 ar   
  4252 4246 4253 1    
  4253 4247 4248 ar   
  4254 4248 4249 ar   
  4255 4248 4254 1    
  4256 4249 4255 1    
  4257 4250 4251 1    
  4258 4251 4259 1    
  4259 4251 4258 1    
  4260 4251 4260 1    
  4261 4261 4276 1    
  4262 4261 4267 1    
  4263 4262 4270 2    
  4264 4263 4264 1    
  4265 4263 4277 1    
  4266 4263 4270 am   BACKBONE|DICT|INTERRES
  4267 4264 4265 ar   
  4268 4264 4269 ar   
  4269 4265 4266 ar   
  4270 4265 4272 1    
  4271 4266 4273 1    
  4272 4266 4267 ar   
  4273 4267 4268 ar   
  4274 4268 4274 1    
  4275 4268 4269 ar   
  4276 4269 4275 1    
  4277 4270 4271 1    
  4278 4271 4279 1    
  4279 4271 4278 1    
  4280 4271 4280 1    
  4281 4281 4296 1    
  4282 4281 4287 1    
  4283 4282 4290 2    
  4284 4283 4284 1    
  4285 4283 4297 1    
  4286 4283 4290 am   BACKBONE|DICT|INTERRES
  4287 4284 4289 ar   
  4288 4284 4285 ar   
  4289 4285 4286 ar   
  4290 4285 4292 1    
  4291 4286 4287 ar   
  4292 4286 4293 1    
  4293 4287 4288 ar   
  4294 4288 4289 ar   
  4295 4288 4294 1    
  4296 4289 4295 1    
  4297 4290 4291 1    
  4298 4291 4298 1    
  4299 4291 4300 1    
  4300 4291 4299 1    
  4301 4301 4307 1    
  4302 4301 4316 1    
  4303 4302 4310 2    
  4304 4303 4310 am   BACKBONE|DICT|INTERRES
  4305 4303 4304 1    
  4306 4303 4317 1    
  4307 4304 4309 ar   
  4308 4304 4305 ar   
  4309 4305 4312 1    
  4310 4305 4306 ar   
  4311 4306 4313 1    
  4312 4306 4307 ar   
  4313 4307 4308 ar   
  4314 4308 4314 1    
  4315 4308 4309 ar   
  4316 4309 4315 1    
  4317 4310 4311 1    
  4318 4311 4318 1    
  4319 4311 4320 1    
  4320 4311 4319 1    
  4321 4321 4336 1    
  4322 4321 4327 1    
  4323 4322 4330 2    
  4324 4323 4337 1    
  4325 4323 4330 am   BACKBONE|DICT|INTERRES
  4326 4323 4324 1    
  4327 4324 4325 ar   
  4328 4324 4329 ar   
  4329 4325 4332 1    
  4330 4325 4326 ar   
  4331 4326 4327 ar   
  4332 4326 4333 1    
  4333 4327 4328 ar   
  4334 4328 4329 ar   
  4335 4328 4334 1    
  4336 4329 4335 1    
  4337 4330 4331 1    
  4338 4331 4339 1    
  4339 4331 4338 1    
  4340 4331 4340 1    
  4341 4341 4356 1    
  4342 4341 4347 1    
  4343 4342 4350 2    
  4344 4343 4344 1    
  4345 4343 4357 1    
  4346 4343 4350 am   BACKBONE|DICT|INTERRES
  4347 4344 4345 ar   
  4348 4344 4349 ar   
  4349 4345 4346 ar   
  4350 4345 4352 1    
  4351 4346 4353 1    
  4352 4346 4347 ar   
  4353 4347 4348 ar   
  4354 4348 4354 1    
  4355 4348 4349 ar   
  4356 4349 4355 1    
  4357 4350 4351 1    
  4358 4351 4359 1    
  4359 4351 4358 1    
  4360 4351 4360 1    
  4361 4361 4376 1    
  4362 4361 4367 1    
  4363 4362 4370 2    
  4364 4363 4364 1    
  4365 4363 4377 1    
  4366 4363 4370 am   BACKBONE|DICT|INTERRES
  4367 4364 4369 ar   
  4368 4364 4365 ar   
  4369 4365 4366 ar   
  4370 4365 4372 1    
  4371 4366 4367 ar   
  4372 4366 4373 1    
  4373 4367 4368 ar   
  4374 4368 4369 ar   
  4375 4368 4374 1    
  4376 4369 4375 1    
  4377 4370 4371 1    
  4378 4371 4378 1    
  4379 4371 4380 1    
  4380 4371 4379 1    
  4381 4381 4387 1    
  4382 4381 4396 1    
  4383 4382 4390 2    
  4384 4383 4390 am   BACKBONE|DICT|INTERRES
  4385 4383 4384 1    
  4386 4383 4397 1    
  4387 4384 4389 ar   
  4388 4384 4385 ar   
  4389 4385 4392 1    
  4390 4385 4386 ar   
  4391 4386 4393 1    
  4392 4386 4387 ar   
  4393 4387 4388 ar   
  4394 4388 4394 1    
  4395 4388 4389 ar   
  4396 4389 4395 1    
  4397 4390 4391 1    
  4398 4391 4398 1    
  4399 4391 4400 1    
  4400 4391 4399 1    
  4401 4401 4416 1    
  4402 4401 4407 1    
  4403 4402 4410 2    
  4404 4403 4417 1    
  4405 4403 4410 am   BACKBONE|DICT|INTERRES
  4406 4403 4404 1    
  4407 4404 4405 ar   
  4408 4404 4409 ar   
  4409 4405 4412 1    
  4410 4405 4406 ar   
  4411 4406 4407 ar   
  4412 4406 4413 1    
  4413 4407 4408 ar   
  4414 4408 4409 ar   
  4415 4408 4414 1    
  4416 4409 4415 1    
  4417 4410 4411 1    
  4418 4411 4419 1    
  4419 4411 4418 1    
  4420 4411 4420 1    
  4421 4421 4436 1    
  4422 4421 4427 1    
  4423 4422 4430 2    
  4424 4423 4424 1    
  4425 4423 4437 1    
  4426 4423 4430 am   BACKBONE|DICT|INTERRES
  4427 4424 4425 ar   
  4428 4424 4429 ar   
  4429 4425 4426 ar   
  4430 4425 4432 1    
  4431 4426 4433 1    
  4432 4426 4427 ar   
  4433 4427 4428 ar   
  4434 4428 4434 1    
  4435 4428 4429 ar   
  4436 4429 4435 1    
  4437 4430 4431 1    
  4438 4431 4439 1    
  4439 4431 4438 1    
  4440 4431 4440 1    
  4441 4441 4456 1    
  4442 4441 4447 1    
  4443 4442 4450 2    
  4444 4443 4444 1    
  4445 4443 4457 1    
  4446 4443 4450 am   BACKBONE|DICT|INTERRES
  4447 4444 4449 ar   
  4448 4444 4445 ar   
  4449 4445 4446 ar   
  4450 4445 4452 1    
  4451 4446 4447 ar   
  4452 4446 4453 1    
  4453 4447 4448 ar   
  4454 4448 4449 ar   
  4455 4448 4454 1    
  4456 4449 4455 1    
  4457 4450 4451 1    
  4458 4451 4458 1    
  4459 4451 4460 1    
  4460 4451 4459 1    
  4461 4461 4467 1    
  4462 4461 4476 1    
  4463 4462 4470 2    
  4464 4463 4470 am   BACKBONE|DICT|INTERRES
  4465 4463 4464 1    
  4466 4463 4477 1    
  4467 4464 4469 ar   
  4468 4464 4465 ar   
  4469 4465 4472 1    
  4470 4465 4466 ar   
  4471 4466 4473 1    
  4472 4466 4467 ar   
  4473 4467 4468 ar   
  4474 4468 4474 1    
  4475 4468 4469 ar   
  4476 4469 4475 1    
  4477 4470 4471 1    
  4478 4471 4478 1    
  4479 4471 4480 1    
  4480 4471 4479 1    
  4481 4481 4496 1    
  4482 4481 4487 1    
  4483 4482 4490 2    
  4484 4483 4497 1    
  4485 4483 4490 am   BACKBONE|DICT|INTERRES
  4486 4483 4484 1    
  4487 4484 4485 ar   
  4488 4484 4489 ar   
  4489 4485 4492 1    
  4490 4485 4486 ar   
  4491 4486 4487 ar   
  4492 4486 4493 1    
  4493 4487 4488 ar   
  4494 4488 4489 ar   
  4495 4488 4494 1    
  4496 4489 4495 1    
  4497 4490 4491 1    
  4498 4491 4499 1    
  4499 4491 4498 1    
  4500 4491 4500 1    
  4501 4501 4516 1    
  4502 4501 4507 1    
  4503 4502 4510 2    
  4504 4503 4504 1    
  4505 4503 4517 1    
  4506 4503 4510 am   BACKBONE|DICT|INTERRES
  4507 4504 4505 ar   
  4508 4504 4509 ar   
  4509 4505 4506 ar   
  4510 4505 4512 1    
  4511 4506 4513 1    
  4512 4506 4507 ar   
  4513 4507 4508 ar   
  4514 4508 4514 1    
  4515 4508 4509 ar   
  4516 4509 4515 1    
  4517 4510 4511 1    
  4518 4511 4519 1    
  4519 4511 4518 1    
  4520 4511 4520 1    
  4521 4521 4536 1    
  4522 4521 4527 1    
  4523 4522 4530 2    
  4524 4523 4524 1    
  4525 4523 4537 1    
  4526 4523 4530 am   BACKBONE|DICT|INTERRES
  4527 4524 4529 ar   
  4528 4524 4525 ar   
  4529 4525 4526 ar   
  4530 4525 4532 1    
  4531 4526 4527 ar   
  4532 4526 4533 1    
  4533 4527 4528 ar   
  4534 4528 4529 ar   
  4535 4528 4534 1    
  4536 4529 4535 1    
  4537 4530 4531 1    
  4538 4531 4538 1    
  4539 4531 4540 1    
  4540 4531 4539 1    
  4541 4541 4547 1    
  4542 4541 4556 1    
  4543 4542 4550 2    
  4544 4543 4550 am   BACKBONE|DICT|INTERRES
  4545 4543 4544 1    
  4546 4543 4557 1    
  4547 4544 4549 ar   
  4548 4544 4545 ar   
  4549 4545 4552 1    
  4550 4545 4546 ar   
  4551 4546 4553 1    
  4552 4546 4547 ar   
  4553 4547 4548 ar   
  4554 4548 4554 1    
  4555 4548 4549 ar   
  4556 4549 4555 1    
  4557 4550 4551 1    
  4558 4551 4558 1    
  4559 4551 4560 1    
  4560 4551 4559 1    
  4561 4561 4576 1    
  4562 4561 4567 1    
  4563 4562 4570 2    
  4564 4563 4577 1    
  4565 4563 4570 am   BACKBONE|DICT|INTERRES
  4566 4563 4564 1    
  4567 4564 4565 ar   
  4568 4564 4569 ar   
  4569 4565 4572 1    
  4570 4565 4566 ar   
  4571 4566 4567 ar   
  4572 4566 4573 1    
  4573 4567 4568 ar   
  4574 4568 4569 ar   
  4575 4568 4574 1    
  4576 4569 4575 1    
  4577 4570 4571 1    
  4578 4571 4579 1    
  4579 4571 4578 1    
  4580 4571 4580 1    
  4581 4581 4596 1    
  4582 4581 4587 1    
  4583 4582 4590 2    
  4584 4583 4584 1    
  4585 4583 4597 1    
  4586 4583 4590 am   BACKBONE|DICT|INTERRES
  4587 4584 4585 ar   
  4588 4584 4589 ar   
  4589 4585 4586 ar   
  4590 4585 4592 1    
  4591 4586 4593 1    
  4592 4586 4587 ar   
  4593 4587 4588 ar   
  4594 4588 4594 1    
  4595 4588 4589 ar   
  4596 4589 4595 1    
  4597 4590 4591 1    
  4598 4591 4599 1    
  4599 4591 4598 1    
  4600 4591 4600 1    
  4601 4601 4616 1    
  4602 4601 4607 1    
  4603 4602 4610 2    
  4604 4603 4604 1    
  4605 4603 4617 1    
  4606 4603 4610 am   BACKBONE|DICT|INTERRES
  4607 4604 4609 ar   
  4608 4604 4605 ar   
  4609 4605 4606 ar   
  4610 4605 4612 1    
  4611 4606 4607 ar   
  4612 4606 4613 1    
  4613 4607 4608 ar   
  4614 4608 4609 ar   
  4615 4608 4614 1    
  4616 4609 4615 1    
  4617 4610 4611 1    
  4618 4611 4618 1    
  4619 4611 4620 1    
  4620 4611 4619 1    
  4621 4621 4627 1    
  4622 4621 4636 1    
  4623 4622 4630 2    
  4624 4623 4630 am   BACKBONE|DICT|INTERRES
  4625 4623 4624 1    
  4626 4623 4637 1    
  4627 4624 4629 ar   
  4628 4624 4625 ar   
  4629 4625 4632 1    
  4630 4625 4626 ar   
  4631 4626 4633 1    
  4632 4626 4627 ar   
  4633 4627 4628 ar   
  4634 4628 4634 1    
  4635 4628 4629 ar   
  4636 4629 4635 1    
  4637 4630 4631 1    
  4638 4631 4638 1    
  4639 4631 4640 1    
  4640 4631 4639 1    
  4641 4641 4656 1    
  4642 4641 4647 1    
  4643 4642 4650 2    
  4644 4643 4657 1    
  4645 4643 4650 am   BACKBONE|DICT|INTERRES
  4646 4643 4644 1    
  4647 4644 4645 ar   
  4648 4644 4649 ar   
  4649 4645 4652 1    
  4650 4645 4646 ar   
  4651 4646 4647 ar   
  4652 4646 4653 1    
  4653 4647 4648 ar   
  4654 4648 4649 ar   
  4655 4648 4654 1    
  4656 4649 4655 1    
  4657 4650 4651 1    
  4658 4651 4659 1    
  4659 4651 4658 1    
  4660 4651 4660 1    
  4661 4661 4676 1    
  4662 4661 4667 1    
  4663 4662 4670 2    
  4664 4663 4664 1    
  4665 4663 4677 1    
  4666 4663 4670 am   BACKBONE|DICT|INTERRES
  4667 4664 4665 ar   
  4668 4664 4669 ar   
  4669 4665 4666 ar   
  4670 4665 4672 1    
  4671 4666 4673 1    
  4672 4666 4667 ar   
  4673 4667 4668 ar   
  4674 4668 4674 1    
  4675 4668 4669 ar   
  4676 4669 4675 1    
  4677 4670 4671 1    
  4678 4671 4679 1    
  4679 4671 4678 1    
  4680 4671 4680 1    
  4681 4681 4696 1    
  4682 4681 4687 1    
  4683 4682 4690 2    
  4684 4683 4684 1    
  4685 4683 4697 1    
  4686 4683 4690 am   BACKBONE|DICT|INTERRES
  4687 4684 4689 ar   
  4688 4684 4685 ar   
  4689 4685 4686 ar   
  4690 4685 4692 1    
  4691 4686 4687 ar   
  4692 4686 4693 1    
  4693 4687 4688 ar   
  4694 4688 4689 ar   
  4695 4688 4694 1    
  4696 4689 4695 1    
  4697 4690 4691 1    
  4698 4691 4698 1    
  4699 4691 4700 1    
  4700 4691 4699 1    
  4701 4701 4707 1    
  4702 4701 4716 1    
  4703 4702 4710 2    
  4704 4703 4710 am   BACKBONE|DICT|INTERRES
  4705 4703 4704 1    
  4706 4703 4717 1    
  4707 4704 4709 ar   
  4708 4704 4705 ar   
  4709 4705 4712 1    
  4710 4705 4706 ar   
  4711 4706 4713 1    
  4712 4706 4707 ar   
  4713 4707 4708 ar   
  4714 4708 4714 1    
  4715 4708 4709 ar   
  4716 4709 4715 1    
  4717 4710 4711 1    
  4718 4711 4718 1    
  4719 4711 4720 1    
  4720 4711 4719 1    
  4721 4721 4736 1    
  4722 4721 4727 1    
  4723 4722 4730 2    
  4724 4723 4737 1    
  4725 4723 4730 am   BACKBONE|DICT|INTERRES
  4726 4723 4724 1    
  4727 4724 4725 ar   
  4728 4724 4729 ar   
  4729 4725 4732 1    
  4730 4725 4726 ar   
  4731 4726 4727 ar   
  4732 4726 4733 1    
  4733 4727 4728 ar   
  4734 4728 4729 ar   
  4735 4728 4734 1    
  4736 4729 4735 1    
  4737 4730 4731 1    
  4738 4731 4739 1    
  4739 4731 4738 1    
  4740 4731 4740 1    
  4741 4741 4756 1    
  4742 4741 4747 1    
  4743 4742 4750 2    
  4744 4743 4744 1    
  4745 4743 4757 1    
  4746 4743 4750 am   BACKBONE|DICT|INTERRES
  4747 4744 4745 ar   
  4748 4744 4749 ar   
  4749 4745 4746 ar   
  4750 4745 4752 1    
  4751 4746 4753 1    
  4752 4746 4747 ar   
  4753 4747 4748 ar   
  4754 4748 4754 1    
  4755 4748 4749 ar   
  4756 4749 4755 1    
  4757 4750 4751 1    
  4758 4751 4759 1    
  4759 4751 4758 1    
  4760 4751 4760 1    
  4761 4761 4776 1    
  4762 4761 4767 1    
  4763 4762 4770 2    
  4764 4763 4764 1    
  4765 4763 4777 1    
  4766 4763 4770 am   BACKBONE|DICT|INTERRES
  4767 4764 4769 ar   
  4768 4764 4765 ar   
  4769 4765 4766 ar   
  4770 4765 4772 1    
  4771 4766 4767 ar   
  4772 4766 4773 1    
  4773 4767 4768 ar   
  4774 4768 4769 ar   
  4775 4768 4774 1    
  4776 4769 4775 1    
  4777 4770 4771 1    
  4778 4771 4778 1    
  4779 4771 4780 1    
  4780 4771 4779 1    
  4781 4781 4787 1    
  4782 4781 4796 1    
  4783 4782 4790 2    
  4784 4783 4790 am   BACKBONE|DICT|INTERRES
  4785 4783 4784 1    
  4786 4783 4797 1    
  4787 4784 4789 ar   
  4788 4784 4785 ar   
  4789 4785 4792 1    
  4790 4785 4786 ar   
  4791 4786 4793 1    
  4792 4786 4787 ar   
  4793 4787 4788 ar   
  4794 4788 4794 1    
  4795 4788 4789 ar   
  4796 4789 4795 1    
  4797 4790 4791 1    
  4798 4791 4798 1    
  4799 4791 4800 1    
  4800 4791 4799 1    
  4801 4801 4816 1    
  4802 4801 4807 1    
  4803 4802 4810 2    
  4804 4803 4817 1    
  4805 4803 4810 am   BACKBONE|DICT|INTERRES
  4806 4803 4804 1    
  4807 4804 4805 ar   
  4808 4804 4809 ar   
  4809 4805 4812 1    
  4810 4805 4806 ar   
  4811 4806 4807 ar   
  4812 4806 4813 1    
  4813 4807 4808 ar   
  4814 4808 4809 ar   
  4815 4808 4814 1    
  4816 4809 4815 1    
  4817 4810 4811 1    
  4818 4811 4819 1    
  4819 4811 4818 1    
  4820 4811 4820 1    
  4821 4821 4836 1    
  4822 4821 4827 1    
  4823 4822 4830 2    
  4824 4823 4824 1    
  4825 4823 4837 1    
  4826 4823 4830 am   BACKBONE|DICT|INTERRES
  4827 4824 4825 ar   
  4828 4824 4829 ar   
  4829 4825 4826 ar   
  4830 4825 4832 1    
  4831 4826 4833 1    
  4832 4826 4827 ar   
  4833 4827 4828 ar   
  4834 4828 4834 1    
  4835 4828 4829 ar   
  4836 4829 4835 1    
  4837 4830 4831 1    
  4838 4831 4839 1    
  4839 4831 4838 1    
  4840 4831 4840 1    
  4841 4841 4856 1    
  4842 4841 4847 1    
  4843 4842 4850 2    
  4844 4843 4844 1    
  4845 4843 4857 1    
  4846 4843 4850 am   BACKBONE|DICT|INTERRES
  4847 4844 4849 ar   
  4848 4844 4845 ar   
  4849 4845 4846 ar   
  4850 4845 4852 1    
  4851 4846 4847 ar   
  4852 4846 4853 1    
  4853 4847 4848 ar   
  4854 4848 4849 ar   
  4855 4848 4854 1    
  4856 4849 4855 1    
  4857 4850 4851 1    
  4858 4851 4858 1    
  4859 4851 4860 1    
  4860 4851 4859 1    
  4861 4861 4867 1    
  4862 4861 4876 1    
  4863 4862 4870 2    
  4864 4863 4870 am   BACKBONE|DICT|INTERRES
  4865 4863 4864 1    
  4866 4863 4877 1    
  4867 4864 4869 ar   
  4868 4864 4865 ar   
  4869 4865 4872 1    
  4870 4865 4866 ar   
  4871 4866 4873 1    
  4872 4866 4867 ar   
  4873 4867 4868 ar   
  4874 4868 4874 1    
  4875 4868 4869 ar   
  4876 4869 4875 1    
  4877 4870 4871 1    
  4878 4871 4878 1    
  4879 4871 4880 1    
  4880 4871 4879 1    
  4881 4881 4896 1    
  4882 4881 4887 1    
  4883 4882 4890 2    
  4884 4883 4897 1    
  4885 4883 4890 am   BACKBONE|DICT|INTERRES
  4886 4883 4884 1    
  4887 4884 4885 ar   
  4888 4884 4889 ar   
  4889 4885 4892 1    
  4890 4885 4886 ar   
  4891 4886 4887 ar   
  4892 4886 4893 1    
  4893 4887 4888 ar   
  4894 4888 4889 ar   
  4895 4888 4894 1    
  4896 4889 4895 1    
  4897 4890 4891 1    
  4898 4891 4899 1    
  4899 4891 4898 1    
  4900 4891 4900 1    
  4901 4901 4916 1    
  4902 4901 4907 1    
  4903 4902 4910 2    
  4904 4903 4904 1    
  4905 4903 4917 1    
  4906 4903 4910 am   BACKBONE|DICT|INTERRES
  4907 4904 4905 ar   
  4908 4904 4909 ar   
  4909 4905 4906 ar   
  4910 4905 4912 1    
  4911 4906 4913 1    
  4912 4906 4907 ar   
  4913 4907 4908 ar   
  4914 4908 4914 1    
  4915 4908 4909 ar   
  4916 4909 4915 1    
  4917 4910 4911 1    
  4918 4911 4919 1    
  4919 4911 4918 1    
  4920 4911 4920 1    
  4921 4921 4936 1    
  4922 4921 4927 1    
  4923 4922 4930 2    
  4924 4923 4924 1    
  4925 4923 4937 1    
  4926 4923 4930 am   BACKBONE|DICT|INTERRES
  4927 4924 4929 ar   
  4928 4924 4925 ar   
  4929 4925 4926 ar   
  4930 4925 4932 1    
  4931 4926 4927 ar   
  4932 4926 4933 1    
  4933 4927 4928 ar   
  4934 4928 4929 ar   
  4935 4928 4934 1    
  4936 4929 4935 1    
  4937 4930 4931 1    
  4938 4931 4938 1    
  4939 4931 4940 1    
  4940 4931 4939 1    
  4941 4941 4947 1    
  4942 4941 4956 1    
  4943 4942 4950 2    
  4944 4943 4950 am   BACKBONE|DICT|INTERRES
  4945 4943 4944 1    
  4946 4943 4957 1    
  4947 4944 4949 ar   
  4948 4944 4945 ar   
  4949 4945 4952 1    
  4950 4945 4946 ar   
  4951 4946 4953 1    
  4952 4946 4947 ar   
  4953 4947 4948 ar   
  4954 4948 4954 1    
  4955 4948 4949 ar   
  4956 4949 4955 1    
  4957 4950 4951 1    
  4958 4951 4958 1    
  4959 4951 4960 1    
  4960 4951 4959 1    
  4961 4961 4976 1    
  4962 4961 4967 1    
  4963 4962 4970 2    
  4964 4963 4977 1    
  4965 4963 4970 am   BACKBONE|DICT|INTERRES
  4966 4963 4964 1    
  4967 4964 4965 ar   
  4968 4964 4969 ar   
  4969 4965 4972 1    
  4970 4965 4966 ar   
  4971 4966 4967 ar   
  4972 4966 4973 1    
  4973 4967 4968 ar   
  4974 4968 4969 ar   
  4975 4968 4974 1    
  4976 4969 4975 1    
  4977 4970 4971 1    
  4978 4971 4979 1    
  4979 4971 4978 1    
  4980 4971 4980 1    
  4981 4981 4996 1    
  4982 4981 4987 1    
  4983 4982 4990 2    
  4984 4983 4984 1    
  4985 4983 4997 1    
  4986 4983 4990 am   BACKBONE|DICT|INTERRES
  4987 4984 4985 ar   
  4988 4984 4989 ar   
  4989 4985 4986 ar   
  4990 4985 4992 1    
  4991 4986 4993 1    
  4992 4986 4987 ar   
  4993 4987 4988 ar   
  4994 4988 4994 1    
  4995 4988 4989 ar   
  4996 4989 4995 1    
  4997 4990 4991 1    
  4998 4991 4999 1    
  4999 4991 4998 1    
  5000 4991 5000 1    
  5001 5001 5016 1    
  5002 5001 5007 1    
  5003 5002 5010 2    
  5004 5003 5004 1    
  5005 5003 5017 1    
  5006 5003 5010 am   BACKBONE|DICT|INTERRES
  5007 5004 5009 ar   
  5008 5004 5005 ar   
  5009 5005 5006 ar   
  5010 5005 5012 1    
  5011 5006 5007 ar   
  5012 5006 5013 1    
  5013 5007 5008 ar   
  5014 5008 5009 ar   
  5015 5008 5014 1    
  5016 5009 5015 1    
  5017 5010 5011 1    
  5018 5011 5018 1    
  5019 5011 5020 1    
  5020 5011 5019 1    
  5021 5021 5027 1    
  5022 5021 5036 1    
  5023 5022 5030 2    
  5024 5023 5030 am   BACKBONE|DICT|INTERRES
  5025 5023 5024 1    
  5026 5023 5037 1    
  5027 5024 5029 ar   
  5028 5024 5025 ar   
  5029 5025 5032 1    
  5030 5025 5026 ar   
  5031 5026 5033 1    
  5032 5026 5027 ar   
  5033 5027 5028 ar   
  5034 5028 5034 1    
  5035 5028 5029 ar   
  5036 5029 5035 1    
  5037 5030 5031 1    
  5038 5031 5038 1    
  5039 5031 5040 1    
  5040 5031 5039 1    
  5041 5041 5056 1    
  5042 5041 5047 1    
  5043 5042 5050 2    
  5044 5043 5057 1    
  5045 5043 5050 am   BACKBONE|DICT|INTERRES
  5046 5043 5044 1    
  5047 5044 5045 ar   
  5048 5044 5049 ar   
  5049 5045 5052 1    
  5050 5045 5046 ar   
  5051 5046 5047 ar   
  5052 5046 5053 1    
  5053 5047 5048 ar   
  5054 5048 5049 ar   
  5055 5048 5054 1    
  5056 5049 5055 1    
  5057 5050 5051 1    
  5058 5051 5059 1    
  5059 5051 5058 1    
  5060 5051 5060 1    
  5061 5061 5076 1    
  5062 5061 5067 1    
  5063 5062 5070 2    
  5064 5063 5064 1    
  5065 5063 5077 1    
  5066 5063 5070 am   BACKBONE|DICT|INTERRES
  5067 5064 5065 ar   
  5068 5064 5069 ar   
  5069 5065 5066 ar   
  5070 5065 5072 1    
  5071 5066 5073 1    
  5072 5066 5067 ar   
  5073 5067 5068 ar   
  5074 5068 5074 1    
  5075 5068 5069 ar   
  5076 5069 5075 1    
  5077 5070 5071 1    
  5078 5071 5079 1    
  5079 5071 5078 1    
  5080 5071 5080 1    
  5081 5081 5096 1    
  5082 5081 5087 1    
  5083 5082 5090 2    
  5084 5083 5084 1    
  5085 5083 5097 1    
  5086 5083 5090 am   BACKBONE|DICT|INTERRES
  5087 5084 5089 ar   
  5088 5084 5085 ar   
  5089 5085 5086 ar   
  5090 5085 5092 1    
  5091 5086 5087 ar   
  5092 5086 5093 1    
  5093 5087 5088 ar   
  5094 5088 5089 ar   
  5095 5088 5094 1    
  5096 5089 5095 1    
  5097 5090 5091 1    
  5098 5091 5098 1    
  5099 5091 5100 1    
  5100 5091 5099 1    
  5101 5101 5107 1    
  5102 5101 5116 1    
  5103 5102 5110 2    
  5104 5103 5110 am   BACKBONE|DICT|INTERRES
  5105 5103 5104 1    
  5106 5103 5117 1    
  5107 5104 5109 ar   
  5108 5104 5105 ar   
  5109 5105 5112 1    
  5110 5105 5106 ar   
  5111 5106 5113 1    
  5112 5106 5107 ar   
  5113 5107 5108 ar   
  5114 5108 5114 1    
  5115 5108 5109 ar   
  5116 5109 5115 1    
  5117 5110 5111 1    
  5118 5111 5118 1    
  5119 5111 5120 1    
  5120 5111 5119 1    
  5121 5121 5136 1    
  5122 5121 5127 1    
  5123 5122 5130 2    
  5124 5123 5137 1    
  5125 5123 5130 am   BACKBONE|DICT|INTERRES
  5126 5123 5124 1    
  5127 5124 5125 ar   
  5128 5124 5129 ar   
  5129 5125 5132 1    
  5130 5125 5126 ar   
  5131 5126 5127 ar   
  5132 5126 5133 1    
  5133 5127 5128 ar   
  5134 5128 5129 ar   
  5135 5128 5134 1    
  5136 5129 5135 1    
  5137 5130 5131 1    
  5138 5131 5139 1    
  5139 5131 5138 1    
  5140 5131 5140 1    
  5141 5141 5156 1    
  5142 5141 5147 1    
  5143 5142 5150 2    
  5144 5143 5144 1    
  5145 5143 5157 1    
  5146 5143 5150 am   BACKBONE|DICT|INTERRES
  5147 5144 5145 ar   
  5148 5144 5149 ar   
  5149 5145 5146 ar   
  5150 5145 5152 1    
  5151 5146 5153 1    
  5152 5146 5147 ar   
  5153 5147 5148 ar   
  5154 5148 5154 1    
  5155 5148 5149 ar   
  5156 5149 5155 1    
  5157 5150 5151 1    
  5158 5151 5159 1    
  5159 5151 5158 1    
  5160 5151 5160 1    
  5161 5161 5176 1    
  5162 5161 5167 1    
  5163 5162 5170 2    
  5164 5163 5164 1    
  5165 5163 5177 1    
  5166 5163 5170 am   BACKBONE|DICT|INTERRES
  5167 5164 5169 ar   
  5168 5164 5165 ar   
  5169 5165 5166 ar   
  5170 5165 5172 1    
  5171 5166 5167 ar   
  5172 5166 5173 1    
  5173 5167 5168 ar   
  5174 5168 5169 ar   
  5175 5168 5174 1    
  5176 5169 5175 1    
  5177 5170 5171 1    
  5178 5171 5178 1    
  5179 5171 5180 1    
  5180 5171 5179 1    
  5181 5181 5187 1    
  5182 5181 5196 1    
  5183 5182 5190 2    
  5184 5183 5190 am   BACKBONE|DICT|INTERRES
  5185 5183 5184 1    
  5186 5183 5197 1    
  5187 5184 5189 ar   
  5188 5184 5185 ar   
  5189 5185 5192 1    
  5190 5185 5186 ar   
  5191 5186 5193 1    
  5192 5186 5187 ar   
  5193 5187 5188 ar   
  5194 5188 5194 1    
  5195 5188 5189 ar   
  5196 5189 5195 1    
  5197 5190 5191 1    
  5198 5191 5198 1    
  5199 5191 5200 1    
  5200 5191 5199 1    
  5201 5201 5216 1    
  5202 5201 5207 1    
  5203 5202 5210 2    
  5204 5203 5217 1    
  5205 5203 5210 am   BACKBONE|DICT|INTERRES
  5206 5203 5204 1    
  5207 5204 5205 ar   
  5208 5204 5209 ar   
  5209 5205 5212 1    
  5210 5205 5206 ar   
  5211 5206 5207 ar   
  5212 5206 5213 1    
  5213 5207 5208 ar   
  5214 5208 5209 ar   
  5215 5208 5214 1    
  5216 5209 5215 1    
  5217 5210 5211 1    
  5218 5211 5219 1    
  5219 5211 5218 1    
  5220 5211 5220 1    
  5221 5221 5236 1    
  5222 5221 5227 1    
  5223 5222 5230 2    
  5224 5223 5224 1    
  5225 5223 5237 1    
  5226 5223 5230 am   BACKBONE|DICT|INTERRES
  5227 5224 5225 ar   
  5228 5224 5229 ar   
  5229 5225 5226 ar   
  5230 5225 5232 1    
  5231 5226 5233 1    
  5232 5226 5227 ar   
  5233 5227 5228 ar   
  5234 5228 5234 1    
  5235 5228 5229 ar   
  5236 5229 5235 1    
  5237 5230 5231 1    
  5238 5231 5239 1    
  5239 5231 5238 1    
  5240 5231 5240 1    
  5241 5241 5256 1    
  5242 5241 5247 1    
  5243 5242 5250 2    
  5244 5243 5244 1    
  5245 5243 5257 1    
  5246 5243 5250 am   BACKBONE|DICT|INTERRES
  5247 5244 5249 ar   
  5248 5244 5245 ar   
  5249 5245 5246 ar   
  5250 5245 5252 1    
  5251 5246 5247 ar   
  5252 5246 5253 1    
  5253 5247 5248 ar   
  5254 5248 5249 ar   
  5255 5248 5254 1    
  5256 5249 5255 1    
  5257 5250 5251 1    
  5258 5251 5258 1    
  5259 5251 5260 1    
  5260 5251 5259 1    
  5261 5261 5267 1    
  5262 5261 5276 1    
  5263 5262 5270 2    
  5264 5263 5270 am   BACKBONE|DICT|INTERRES
  5265 5263 5264 1    
  5266 5263 5277 1    
  5267 5264 5269 ar   
  5268 5264 5265 ar   
  5269 5265 5272 1    
  5270 5265 5266 ar   
  5271 5266 5273 1    
  5272 5266 5267 ar   
  5273 5267 5268 ar   
  5274 5268 5274 1    
  5275 5268 5269 ar   
  5276 5269 5275 1    
  5277 5270 5271 1    
  5278 5271 5278 1    
  5279 5271 5280 1    
  5280 5271 5279 1    
  5281 5281 5296 1    
  5282 5281 5287 1    
  5283 5282 5290 2    
  5284 5283 5297 1    
  5285 5283 5290 am   BACKBONE|DICT|INTERRES
  5286 5283 5284 1    
  5287 5284 5285 ar   
  5288 5284 5289 ar   
  5289 5285 5292 1    
  5290 5285 5286 ar   
  5291 5286 5287 ar   
  5292 5286 5293 1    
  5293 5287 5288 ar   
  5294 5288 5289 ar   
  5295 5288 5294 1    
  5296 5289 5295 1    
  5297 5290 5291 1    
  5298 5291 5299 1    
  5299 5291 5298 1    
  5300 5291 5300 1    
  5301 5301 5316 1    
  5302 5301 5307 1    
  5303 5302 5310 2    
  5304 5303 5304 1    
  5305 5303 5317 1    
  5306 5303 5310 am   BACKBONE|DICT|INTERRES
  5307 5304 5305 ar   
  5308 5304 5309 ar   
  5309 5305 5306 ar   
  5310 5305 5312 1    
  5311 5306 5313 1    
  5312 5306 5307 ar   
  5313 5307 5308 ar   
  5314 5308 5314 1    
  5315 5308 5309 ar   
  5316 5309 5315 1    
  5317 5310 5311 1    
  5318 5311 5319 1    
  5319 5311 5318 1    
  5320 5311 5320 1    
  5321 5321 5336 1    
  5322 5321 5327 1    
  5323 5322 5330 2    
  5324 5323 5324 1    
  5325 5323 5337 1    
  5326 5323 5330 am   BACKBONE|DICT|INTERRES
  5327 5324 5329 ar   
  5328 5324 5325 ar   
  5329 5325 5326 ar   
  5330 5325 5332 1    
  5331 5326 5327 ar   
  5332 5326 5333 1    
  5333 5327 5328 ar   
  5334 5328 5329 ar   
  5335 5328 5334 1    
  5336 5329 5335 1    
  5337 5330 5331 1    
  5338 5331 5338 1    
  5339 5331 5340 1    
  5340 5331 5339 1    
  5341 5341 5347 1    
  5342 5341 5356 1    
  5343 5342 5350 2    
  5344 5343 5350 am   BACKBONE|DICT|INTERRES
  5345 5343 5344 1    
  5346 5343 5357 1    
  5347 5344 5349 ar   
  5348 5344 5345 ar   
  5349 5345 5352 1    
  5350 5345 5346 ar   
  5351 5346 5353 1    
  5352 5346 5347 ar   
  5353 5347 5348 ar   
  5354 5348 5354 1    
  5355 5348 5349 ar   
  5356 5349 5355 1    
  5357 5350 5351 1    
  5358 5351 5358 1    
  5359 5351 5360 1    
  5360 5351 5359 1    
  5361 5361 5376 1    
  5362 5361 5367 1    
  5363 5362 5370 2    
  5364 5363 5377 1    
  5365 5363 5370 am   BACKBONE|DICT|INTERRES
  5366 5363 5364 1    
  5367 5364 5365 ar   
  5368 5364 5369 ar   
  5369 5365 5372 1    
  5370 5365 5366 ar   
  5371 5366 5367 ar   
  5372 5366 5373 1    
  5373 5367 5368 ar   
  5374 5368 5369 ar   
  5375 5368 5374 1    
  5376 5369 5375 1    
  5377 5370 5371 1    
  5378 5371 5379 1    
  5379 5371 5378 1    
  5380 5371 5380 1    
  5381 5381 5396 1    
  5382 5381 5387 1    
  5383 5382 5390 2    
  5384 5383 5384 1    
  5385 5383 5397 1    
  5386 5383 5390 am   BACKBONE|DICT|INTERRES
  5387 5384 5385 ar   
  5388 5384 5389 ar   
  5389 5385 5386 ar   
  5390 5385 5392 1    
  5391 5386 5393 1    
  5392 5386 5387 ar   
  5393 5387 5388 ar   
  5394 5388 5394 1    
  5395 5388 5389 ar   
  5396 5389 5395 1    
  5397 5390 5391 1    
  5398 5391 5399 1    
  5399 5391 5398 1    
  5400 5391 5400 1    
  5401 5401 5416 1    
  5402 5401 5407 1    
  5403 5402 5410 2    
  5404 5403 5404 1    
  5405 5403 5417 1    
  5406 5403 5410 am   BACKBONE|DICT|INTERRES
  5407 5404 5409 ar   
  5408 5404 5405 ar   
  5409 5405 5406 ar   
  5410 5405 5412 1    
  5411 5406 5407 ar   
  5412 5406 5413 1    
  5413 5407 5408 ar   
  5414 5408 5409 ar   
  5415 5408 5414 1    
  5416 5409 5415 1    
  5417 5410 5411 1    
  5418 5411 5418 1    
  5419 5411 5420 1    
  5420 5411 5419 1    
  5421 5421 5427 1    
  5422 5421 5436 1    
  5423 5422 5430 2    
  5424 5423 5430 am   BACKBONE|DICT|INTERRES
  5425 5423 5424 1    
  5426 5423 5437 1    
  5427 5424 5429 ar   
  5428 5424 5425 ar   
  5429 5425 5432 1    
  5430 5425 5426 ar   
  5431 5426 5433 1    
  5432 5426 5427 ar   
  5433 5427 5428 ar   
  5434 5428 5434 1    
  5435 5428 5429 ar   
  5436 5429 5435 1    
  5437 5430 5431 1    
  5438 5431 5438 1    
  5439 5431 5440 1    
  5440 5431 5439 1    
  5441 5441 5456 1    
  5442 5441 5447 1    
  5443 5442 5450 2    
  5444 5443 5457 1    
  5445 5443 5450 am   BACKBONE|DICT|INTERRES
  5446 5443 5444 1    
  5447 5444 5445 ar   
  5448 5444 5449 ar   
  5449 5445 5452 1    
  5450 5445 5446 ar   
  5451 5446 5447 ar   
  5452 5446 5453 1    
  5453 5447 5448 ar   
  5454 5448 5449 ar   
  5455 5448 5454 1    
  5456 5449 5455 1    
  5457 5450 5451 1    
  5458 5451 5459 1    
  5459 5451 5458 1    
  5460 5451 5460 1    
  5461 5461 5476 1    
  5462 5461 5467 1    
  5463 5462 5470 2    
  5464 5463 5464 1    
  5465 5463 5477 1    
  5466 5463 5470 am   BACKBONE|DICT|INTERRES
  5467 5464 5465 ar   
  5468 5464 5469 ar   
  5469 5465 5466 ar   
  5470 5465 5472 1    
  5471 5466 5473 1    
  5472 5466 5467 ar   
  5473 5467 5468 ar   
  5474 5468 5474 1    
  5475 5468 5469 ar   
  5476 5469 5475 1    
  5477 5470 5471 1    
  5478 5471 5479 1    
  5479 5471 5478 1    
  5480 5471 5480 1    
  5481 5481 5496 1    
  5482 5481 5487 1    
  5483 5482 5490 2    
  5484 5483 5484 1    
  5485 5483 5497 1    
  5486 5483 5490 am   BACKBONE|DICT|INTERRES
  5487 5484 5489 ar   
  5488 5484 5485 ar   
  5489 5485 5486 ar   
  5490 5485 5492 1    
  5491 5486 5487 ar   
  5492 5486 5493 1    
  5493 5487 5488 ar   
  5494 5488 5489 ar   
  5495 5488 5494 1    
  5496 5489 5495 1    
  5497 5490 5491 1    
  5498 5491 5498 1    
  5499 5491 5500 1    
  5500 5491 5499 1    
  5501 5501 5507 1    
  5502 5501 5516 1    
  5503 5502 5510 2    
  5504 5503 5510 am   BACKBONE|DICT|INTERRES
  5505 5503 5504 1    
  5506 5503 5517 1    
  5507 5504 5509 ar   
  5508 5504 5505 ar   
  5509 5505 5512 1    
  5510 5505 5506 ar   
  5511 5506 5513 1    
  5512 5506 5507 ar   
  5513 5507 5508 ar   
  5514 5508 5514 1    
  5515 5508 5509 ar   
  5516 5509 5515 1    
  5517 5510 5511 1    
  5518 5511 5518 1    
  5519 5511 5520 1    
  5520 5511 5519 1    
  5521 5521 5536 1    
  5522 5521 5527 1    
  5523 5522 5530 2    
  5524 5523 5537 1    
  5525 5523 5530 am   BACKBONE|DICT|INTERRES
  5526 5523 5524 1    
  5527 5524 5525 ar   
  5528 5524 5529 ar   
  5529 5525 5532 1    
  5530 5525 5526 ar   
  5531 5526 5527 ar   
  5532 5526 5533 1    
  5533 5527 5528 ar   
  5534 5528 5529 ar   
  5535 5528 5534 1    
  5536 5529 5535 1    
  5537 5530 5531 1    
  5538 5531 5539 1    
  5539 5531 5538 1    
  5540 5531 5540 1    
  5541 5541 5556 1    
  5542 5541 5547 1    
  5543 5542 5550 2    
  5544 5543 5544 1    
  5545 5543 5557 1    
  5546 5543 5550 am   BACKBONE|DICT|INTERRES
  5547 5544 5545 ar   
  5548 5544 5549 ar   
  5549 5545 5546 ar   
  5550 5545 5552 1    
  5551 5546 5553 1    
  5552 5546 5547 ar   
  5553 5547 5548 ar   
  5554 5548 5554 1    
  5555 5548 5549 ar   
  5556 5549 5555 1    
  5557 5550 5551 1    
  5558 5551 5559 1    
  5559 5551 5558 1    
  5560 5551 5560 1    
  5561 5561 5576 1    
  5562 5561 5567 1    
  5563 5562 5570 2    
  5564 5563 5564 1    
  5565 5563 5577 1    
  5566 5563 5570 am   BACKBONE|DICT|INTERRES
  5567 5564 5569 ar   
  5568 5564 5565 ar   
  5569 5565 5566 ar   
  5570 5565 5572 1    
  5571 5566 5567 ar   
  5572 5566 5573 1    
  5573 5567 5568 ar   
  5574 5568 5569 ar   
  5575 5568 5574 1    
  5576 5569 5575 1    
  5577 5570 5571 1    
  5578 5571 5578 1    
  5579 5571 5580 1    
  5580 5571 5579 1    
  5581 5581 5587 1    
  5582 5581 5596 1    
  5583 5582 5590 2    
  5584 5583 5590 am   BACKBONE|DICT|INTERRES
  5585 5583 5584 1    
  5586 5583 5597 1    
  5587 5584 5589 ar   
  5588 5584 5585 ar   
  5589 5585 5592 1    
  5590 5585 5586 ar   
  5591 5586 5593 1    
  5592 5586 5587 ar   
  5593 5587 5588 ar   
  5594 5588 5594 1    
  5595 5588 5589 ar   
  5596 5589 5595 1    
  5597 5590 5591 1    
  5598 5591 5598 1    
  5599 5591 5600 1    
  5600 5591 5599 1    
  5601 5601 5616 1    
  5602 5601 5607 1    
  5603 5602 5610 2    
  5604 5603 5617 1    
  5605 5603 5610 am   BACKBONE|DICT|INTERRES
  5606 5603 5604 1    
  5607 5604 5605 ar   
  5608 5604 5609 ar   
  5609 5605 5612 1    
  5610 5605 5606 ar   
  5611 5606 5607 ar   
  5612 5606 5613 1    
  5613 5607 5608 ar   
  5614 5608 5609 ar   
  5615 5608 5614 1    
  5616 5609 5615 1    
  5617 5610 5611 1    
  5618 5611 5619 1    
  5619 5611 5618 1    
  5620 5611 5620 1    
  5621 5621 5636 1    
  5622 5621 5627 1    
  5623 5622 5630 2    
  5624 5623 5624 1    
  5625 5623 5637 1    
  5626 5623 5630 am   BACKBONE|DICT|INTERRES
  5627 5624 5625 ar   
  5628 5624 5629 ar   
  5629 5625 5626 ar   
  5630 5625 5632 1    
  5631 5626 5633 1    
  5632 5626 5627 ar   
  5633 5627 5628 ar   
  5634 5628 5634 1    
  5635 5628 5629 ar   
  5636 5629 5635 1    
  5637 5630 5631 1    
  5638 5631 5639 1    
  5639 5631 5638 1    
  5640 5631 5640 1    
  5641 5641 5656 1    
  5642 5641 5647 1    
  5643 5642 5650 2    
  5644 5643 5644 1    
  5645 5643 5657 1    
  5646 5643 5650 am   BACKBONE|DICT|INTERRES
  5647 5644 5649 ar   
  5648 5644 5645 ar   
  5649 5645 5646 ar   
  5650 5645 5652 1    
  5651 5646 5647 ar   
  5652 5646 5653 1    
  5653 5647 5648 ar   
  5654 5648 5649 ar   
  5655 5648 5654 1    
  5656 5649 5655 1    
  5657 5650 5651 1    
  5658 5651 5658 1    
  5659 5651 5660 1    
  5660 5651 5659 1    
  5661 5661 5667 1    
  5662 5661 5676 1    
  5663 5662 5670 2    
  5664 5663 5670 am   BACKBONE|DICT|INTERRES
  5665 5663 5664 1    
  5666 5663 5677 1    
  5667 5664 5669 ar   
  5668 5664 5665 ar   
  5669 5665 5672 1    
  5670 5665 5666 ar   
  5671 5666 5673 1    
  5672 5666 5667 ar   
  5673 5667 5668 ar   
  5674 5668 5674 1    
  5675 5668 5669 ar   
  5676 5669 5675 1    
  5677 5670 5671 1    
  5678 5671 5678 1    
  5679 5671 5680 1    
  5680 5671 5679 1    
  5681 5681 5696 1    
  5682 5681 5687 1    
  5683 5682 5690 2    
  5684 5683 5697 1    
  5685 5683 5690 am   BACKBONE|DICT|INTERRES
  5686 5683 5684 1    
  5687 5684 5685 ar   
  5688 5684 5689 ar   
  5689 5685 5692 1    
  5690 5685 5686 ar   
  5691 5686 5687 ar   
  5692 5686 5693 1    
  5693 5687 5688 ar   
  5694 5688 5689 ar   
  5695 5688 5694 1    
  5696 5689 5695 1    
  5697 5690 5691 1    
  5698 5691 5699 1    
  5699 5691 5698 1    
  5700 5691 5700 1    
  5701 5701 5716 1    
  5702 5701 5707 1    
  5703 5702 5710 2    
  5704 5703 5704 1    
  5705 5703 5717 1    
  5706 5703 5710 am   BACKBONE|DICT|INTERRES
  5707 5704 5705 ar   
  5708 5704 5709 ar   
  5709 5705 5706 ar   
  5710 5705 5712 1    
  5711 5706 5713 1    
  5712 5706 5707 ar   
  5713 5707 5708 ar   
  5714 5708 5714 1    
  5715 5708 5709 ar   
  5716 5709 5715 1    
  5717 5710 5711 1    
  5718 5711 5719 1    
  5719 5711 5718 1    
  5720 5711 5720 1    
  5721 5721 5736 1    
  5722 5721 5727 1    
  5723 5722 5730 2    
  5724 5723 5724 1    
  5725 5723 5737 1    
  5726 5723 5730 am   BACKBONE|DICT|INTERRES
  5727 5724 5729 ar   
  5728 5724 5725 ar   
  5729 5725 5726 ar   
  5730 5725 5732 1    
  5731 5726 5727 ar   
  5732 5726 5733 1    
  5733 5727 5728 ar   
  5734 5728 5729 ar   
  5735 5728 5734 1    
  5736 5729 5735 1    
  5737 5730 5731 1    
  5738 5731 5738 1    
  5739 5731 5740 1    
  5740 5731 5739 1    
  5741 5741 5747 1    
  5742 5741 5756 1    
  5743 5742 5750 2    
  5744 5743 5750 am   BACKBONE|DICT|INTERRES
  5745 5743 5744 1    
  5746 5743 5757 1    
  5747 5744 5749 ar   
  5748 5744 5745 ar   
  5749 5745 5752 1    
  5750 5745 5746 ar   
  5751 5746 5753 1    
  5752 5746 5747 ar   
  5753 5747 5748 ar   
  5754 5748 5754 1    
  5755 5748 5749 ar   
  5756 5749 5755 1    
  5757 5750 5751 1    
  5758 5751 5758 1    
  5759 5751 5760 1    
  5760 5751 5759 1    
  5761 5761 5776 1    
  5762 5761 5767 1    
  5763 5762 5770 2    
  5764 5763 5777 1    
  5765 5763 5770 am   BACKBONE|DICT|INTERRES
  5766 5763 5764 1    
  5767 5764 5765 ar   
  5768 5764 5769 ar   
  5769 5765 5772 1    
  5770 5765 5766 ar   
  5771 5766 5767 ar   
  5772 5766 5773 1    
  5773 5767 5768 ar   
  5774 5768 5769 ar   
  5775 5768 5774 1    
  5776 5769 5775 1    
  5777 5770 5771 1    
  5778 5771 5779 1    
  5779 5771 5778 1    
  5780 5771 5780 1    
  5781 5781 5796 1    
  5782 5781 5787 1    
  5783 5782 5790 2    
  5784 5783 5784 1    
  5785 5783 5797 1    
  5786 5783 5790 am   BACKBONE|DICT|INTERRES
  5787 5784 5785 ar   
  5788 5784 5789 ar   
  5789 5785 5786 ar   
  5790 5785 5792 1    
  5791 5786 5793 1    
  5792 5786 5787 ar   
  5793 5787 5788 ar   
  5794 5788 5794 1    
  5795 5788 5789 ar   
  5796 5789 5795 1    
  5797 5790 5791 1    
  5798 5791 5799 1    
  5799 5791 5798 1    
  5800 5791 5800 1    
  5801 5801 5816 1    
  5802 5801 5807 1    
  5803 5802 5810 2    
  5804 5803 5804 1    
  5805 5803 5817 1    
  5806 5803 5810 am   BACKBONE|DICT|INTERRES
  5807 5804 5809 ar   
  5808 5804 5805 ar   
  5809 5805 5806 ar   
  5810 5805 5812 1    
  5811 5806 5807 ar   
  5812 5806 5813 1    
  5813 5807 5808 ar   
  5814 5808 5809 ar   
  5815 5808 5814 1    
  5816 5809 5815 1    
  5817 5810 5811 1    
  5818 5811 5818 1    
  5819 5811 5820 1    
  5820 5811 5819 1    
  5821 5821 5827 1    
  5822 5821 5836 1    
  5823 5822 5830 2    
  5824 5823 5830 am   BACKBONE|DICT|INTERRES
  5825 5823 5824 1    
  5826 5823 5837 1    
  5827 5824 5829 ar   
  5828 5824 5825 ar   
  5829 5825 5832 1    
  5830 5825 5826 ar   
  5831 5826 5833 1    
  5832 5826 5827 ar   
  5833 5827 5828 ar   
  5834 5828 5834 1    
  5835 5828 5829 ar   
  5836 5829 5835 1    
  5837 5830 5831 1    
  5838 5831 5838 1    
  5839 5831 5840 1    
  5840 5831 5839 1    
  5841 5841 5856 1    
  5842 5841 5847 1    
  5843 5842 5850 2    
  5844 5843 5857 1    
  5845 5843 5850 am   BACKBONE|DICT|INTERRES
  5846 5843 5844 1    
  5847 5844 5845 ar   
  5848 5844 5849 ar   
  5849 5845 5852 1    
  5850 5845 5846 ar   
  5851 5846 5847 ar   
  5852 5846 5853 1    
  5853 5847 5848 ar   
  5854 5848 5849 ar   
  5855 5848 5854 1    
  5856 5849 5855 1    
  5857 5850 5851 1    
  5858 5851 5859 1    
  5859 5851 5858 1    
  5860 5851 5860 1    
  5861 5861 5876 1    
  5862 5861 5867 1    
  5863 5862 5870 2    
  5864 5863 5864 1    
  5865 5863 5877 1    
  5866 5863 5870 am   BACKBONE|DICT|INTERRES
  5867 5864 5865 ar   
  5868 5864 5869 ar   
  5869 5865 5866 ar   
  5870 5865 5872 1    
  5871 5866 5873 1    
  5872 5866 5867 ar   
  5873 5867 5868 ar   
  5874 5868 5874 1    
  5875 5868 5869 ar   
  5876 5869 5875 1    
  5877 5870 5871 1    
  5878 5871 5879 1    
  5879 5871 5878 1    
  5880 5871 5880 1    
  5881 5881 5896 1    
  5882 5881 5887 1    
  5883 5882 5890 2    
  5884 5883 5884 1    
  5885 5883 5897 1    
  5886 5883 5890 am   BACKBONE|DICT|INTERRES
  5887 5884 5889 ar   
  5888 5884 5885 ar   
  5889 5885 5886 ar   
  5890 5885 5892 1    
  5891 5886 5887 ar   
  5892 5886 5893 1    
  5893 5887 5888 ar   
  5894 5888 5889 ar   
  5895 5888 5894 1    
  5896 5889 5895 1    
  5897 5890 5891 1    
  5898 5891 5898 1    
  5899 5891 5900 1    
  5900 5891 5899 1    
  5901 5901 5907 1    
  5902 5901 5916 1    
  5903 5902 5910 2    
  5904 5903 5910 am   BACKBONE|DICT|INTERRES
  5905 5903 5904 1    
  5906 5903 5917 1    
  5907 5904 5909 ar   
  5908 5904 5905 ar   
  5909 5905 5912 1    
  5910 5905 5906 ar   
  5911 5906 5913 1    
  5912 5906 5907 ar   
  5913 5907 5908 ar   
  5914 5908 5914 1    
  5915 5908 5909 ar   
  5916 5909 5915 1    
  5917 5910 5911 1    
  5918 5911 5918 1    
  5919 5911 5920 1    
  5920 5911 5919 1    
  5921 5921 5936 1    
  5922 5921 5927 1    
  5923 5922 5930 2    
  5924 5923 5937 1    
  5925 5923 5930 am   BACKBONE|DICT|INTERRES
  5926 5923 5924 1    
  5927 5924 5925 ar   
  5928 5924 5929 ar   
  5929 5925 5932 1    
  5930 5925 5926 ar   
  5931 5926 5927 ar   
  5932 5926 5933 1    
  5933 5927 5928 ar   
  5934 5928 5929 ar   
  5935 5928 5934 1    
  5936 5929 5935 1    
  5937 5930 5931 1    
  5938 5931 5939 1    
  5939 5931 5938 1    
  5940 5931 5940 1    
  5941 5941 5956 1    
  5942 5941 5947 1    
  5943 5942 5950 2    
  5944 5943 5944 1    
  5945 5943 5957 1    
  5946 5943 5950 am   BACKBONE|DICT|INTERRES
  5947 5944 5945 ar   
  5948 5944 5949 ar   
  5949 5945 5946 ar   
  5950 5945 5952 1    
  5951 5946 5953 1    
  5952 5946 5947 ar   
  5953 5947 5948 ar   
  5954 5948 5954 1    
  5955 5948 5949 ar   
  5956 5949 5955 1    
  5957 5950 5951 1    
  5958 5951 5959 1    
  5959 5951 5958 1    
  5960 5951 5960 1    
  5961 5961 5976 1    
  5962 5961 5967 1    
  5963 5962 5970 2    
  5964 5963 5964 1    
  5965 5963 5977 1    
  5966 5963 5970 am   BACKBONE|DICT|INTERRES
  5967 5964 5969 ar   
  5968 5964 5965 ar   
  5969 5965 5966 ar   
  5970 5965 5972 1    
  5971 5966 5967 ar   
  5972 5966 5973 1    
  5973 5967 5968 ar   
  5974 5968 5969 ar   
  5975 5968 5974 1    
  5976 5969 5975 1    
  5977 5970 5971 1    
  5978 5971 5978 1    
  5979 5971 5980 1    
  5980 5971 5979 1    
  5981 5981 5987 1    
  5982 5981 5996 1    
  5983 5982 5990 2    
  5984 5983 5990 am   BACKBONE|DICT|INTERRES
  5985 5983 5984 1    
  5986 5983 5997 1    
  5987 5984 5989 ar   
  5988 5984 5985 ar   
  5989 5985 5992 1    
  5990 5985 5986 ar   
  5991 5986 5993 1    
  5992 5986 5987 ar   
  5993 5987 5988 ar   
  5994 5988 5994 1    
  5995 5988 5989 ar   
  5996 5989 5995 1    
  5997 5990 5991 1    
  5998 5991 5998 1    
  5999 5991 6000 1    
  6000 5991 5999 1    
  6001 6001 6016 1    
  6002 6001 6007 1    
  6003 6002 6010 2    
  6004 6003 6017 1    
  6005 6003 6010 am   BACKBONE|DICT|INTERRES
  6006 6003 6004 1    
  6007 6004 6005 ar   
  6008 6004 6009 ar   
  6009 6005 6012 1    
  6010 6005 6006 ar   
  6011 6006 6007 ar   
  6012 6006 6013 1    
  6013 6007 6008 ar   
  6014 6008 6009 ar   
  6015 6008 6014 1    
  6016 6009 6015 1    
  6017 6010 6011 1    
  6018 6011 6019 1    
  6019 6011 6018 1    
  6020 6011 6020 1    
  6021 6021 6036 1    
  6022 6021 6027 1    
  6023 6022 6030 2    
  6024 6023 6024 1    
  6025 6023 6037 1    
  6026 6023 6030 am   BACKBONE|DICT|INTERRES
  6027 6024 6025 ar   
  6028 6024 6029 ar   
  6029 6025 6026 ar   
  6030 6025 6032 1    
  6031 6026 6033 1    
  6032 6026 6027 ar   
  6033 6027 6028 ar   
  6034 6028 6034 1    
  6035 6028 6029 ar   
  6036 6029 6035 1    
  6037 6030 6031 1    
  6038 6031 6039 1    
  6039 6031 6038 1    
  6040 6031 6040 1    
  6041 6041 6056 1    
  6042 6041 6047 1    
  6043 6042 6050 2    
  6044 6043 6044 1    
  6045 6043 6057 1    
  6046 6043 6050 am   BACKBONE|DICT|INTERRES
  6047 6044 6049 ar   
  6048 6044 6045 ar   
  6049 6045 6046 ar   
  6050 6045 6052 1    
  6051 6046 6047 ar   
  6052 6046 6053 1    
  6053 6047 6048 ar   
  6054 6048 6049 ar   
  6055 6048 6054 1    
  6056 6049 6055 1    
  6057 6050 6051 1    
  6058 6051 6058 1    
  6059 6051 6060 1    
  6060 6051 6059 1    
  6061 6061 6067 1    
  6062 6061 6076 1    
  6063 6062 6070 2    
  6064 6063 6070 am   BACKBONE|DICT|INTERRES
  6065 6063 6064 1    
  6066 6063 6077 1    
  6067 6064 6069 ar   
  6068 6064 6065 ar   
  6069 6065 6072 1    
  6070 6065 6066 ar   
  6071 6066 6073 1    
  6072 6066 6067 ar   
  6073 6067 6068 ar   
  6074 6068 6074 1    
  6075 6068 6069 ar   
  6076 6069 6075 1    
  6077 6070 6071 1    
  6078 6071 6078 1    
  6079 6071 6080 1    
  6080 6071 6079 1    
  6081 6081 6096 1    
  6082 6081 6087 1    
  6083 6082 6090 2    
  6084 6083 6097 1    
  6085 6083 6090 am   BACKBONE|DICT|INTERRES
  6086 6083 6084 1    
  6087 6084 6085 ar   
  6088 6084 6089 ar   
  6089 6085 6092 1    
  6090 6085 6086 ar   
  6091 6086 6087 ar   
  6092 6086 6093 1    
  6093 6087 6088 ar   
  6094 6088 6089 ar   
  6095 6088 6094 1    
  6096 6089 6095 1    
  6097 6090 6091 1    
  6098 6091 6099 1    
  6099 6091 6098 1    
  6100 6091 6100 1    
  6101 6101 6116 1    
  6102 6101 6107 1    
  6103 6102 6110 2    
  6104 6103 6104 1    
  6105 6103 6117 1    
  6106 6103 6110 am   BACKBONE|DICT|INTERRES
  6107 6104 6105 ar   
  6108 6104 6109 ar   
  6109 6105 6106 ar   
  6110 6105 6112 1    
  6111 6106 6113 1    
  6112 6106 6107 ar   
  6113 6107 6108 ar   
  6114 6108 6114 1    
  6115 6108 6109 ar   
  6116 6109 6115 1    
  6117 6110 6111 1    
  6118 6111 6119 1    
  6119 6111 6118 1    
  6120 6111 6120 1    
  6121 6121 6136 1    
  6122 6121 6127 1    
  6123 6122 6130 2    
  6124 6123 6124 1    
  6125 6123 6137 1    
  6126 6123 6130 am   BACKBONE|DICT|INTERRES
  6127 6124 6129 ar   
  6128 6124 6125 ar   
  6129 6125 6126 ar   
  6130 6125 6132 1    
  6131 6126 6127 ar   
  6132 6126 6133 1    
  6133 6127 6128 ar   
  6134 6128 6129 ar   
  6135 6128 6134 1    
  6136 6129 6135 1    
  6137 6130 6131 1    
  6138 6131 6138 1    
  6139 6131 6140 1    
  6140 6131 6139 1    
  6141 6141 6147 1    
  6142 6141 6156 1    
  6143 6142 6150 2    
  6144 6143 6150 am   BACKBONE|DICT|INTERRES
  6145 6143 6144 1    
  6146 6143 6157 1    
  6147 6144 6149 ar   
  6148 6144 6145 ar   
  6149 6145 6152 1    
  6150 6145 6146 ar   
  6151 6146 6153 1    
  6152 6146 6147 ar   
  6153 6147 6148 ar   
  6154 6148 6154 1    
  6155 6148 6149 ar   
  6156 6149 6155 1    
  6157 6150 6151 1    
  6158 6151 6158 1    
  6159 6151 6160 1    
  6160 6151 6159 1    
  6161 6161 6176 1    
  6162 6161 6167 1    
  6163 6162 6170 2    
  6164 6163 6177 1    
  6165 6163 6170 am   BACKBONE|DICT|INTERRES
  6166 6163 6164 1    
  6167 6164 6165 ar   
  6168 6164 6169 ar   
  6169 6165 6172 1    
  6170 6165 6166 ar   
  6171 6166 6167 ar   
  6172 6166 6173 1    
  6173 6167 6168 ar   
  6174 6168 6169 ar   
  6175 6168 6174 1    
  6176 6169 6175 1    
  6177 6170 6171 1    
  6178 6171 6179 1    
  6179 6171 6178 1    
  6180 6171 6180 1    
  6181 6181 6196 1    
  6182 6181 6187 1    
  6183 6182 6190 2    
  6184 6183 6184 1    
  6185 6183 6197 1    
  6186 6183 6190 am   BACKBONE|DICT|INTERRES
  6187 6184 6185 ar   
  6188 6184 6189 ar   
  6189 6185 6186 ar   
  6190 6185 6192 1    
  6191 6186 6193 1    
  6192 6186 6187 ar   
  6193 6187 6188 ar   
  6194 6188 6194 1    
  6195 6188 6189 ar   
  6196 6189 6195 1    
  6197 6190 6191 1    
  6198 6191 6199 1    
  6199 6191 6198 1    
  6200 6191 6200 1    
  6201 6201 6216 1    
  6202 6201 6207 1    
  6203 6202 6210 2    
  6204 6203 6204 1    
  6205 6203 6217 1    
  6206 6203 6210 am   BACKBONE|DICT|INTERRES
  6207 6204 6209 ar   
  6208 6204 6205 ar   
  6209 6205 6206 ar   
  6210 6205 6212 1    
  6211 6206 6207 ar   
  6212 6206 6213 1    
  6213 6207 6208 ar   
  6214 6208 6209 ar   
  6215 6208 6214 1    
  6216 6209 6215 1    
  6217 6210 6211 1    
  6218 6211 6218 1    
  6219 6211 6220 1    
  6220 6211 6219 1    
  6221 6221 6227 1    
  6222 6221 6236 1    
  6223 6222 6230 2    
  6224 6223 6230 am   BACKBONE|DICT|INTERRES
  6225 6223 6224 1    
  6226 6223 6237 1    
  6227 6224 6229 ar   
  6228 6224 6225 ar   
  6229 6225 6232 1    
  6230 6225 6226 ar   
  6231 6226 6233 1    
  6232 6226 6227 ar   
  6233 6227 6228 ar   
  6234 6228 6234 1    
  6235 6228 6229 ar   
  6236 6229 6235 1    
  6237 6230 6231 1    
  6238 6231 6238 1    
  6239 6231 6240 1    
  6240 6231 6239 1    
  6241 6241 6256 1    
  6242 6241 6247 1    
  6243 6242 6250 2    
  6244 6243 6257 1    
  6245 6243 6250 am   BACKBONE|DICT|INTERRES
  6246 6243 6244 1    
  6247 6244 6245 ar   
  6248 6244 6249 ar   
  6249 6245 6252 1    
  6250 6245 6246 ar   
  6251 6246 6247 ar   
  6252 6246 6253 1    
  6253 6247 6248 ar   
  6254 6248 6249 ar   
  6255 6248 6254 1    
  6256 6249 6255 1    
  6257 6250 6251 1    
  6258 6251 6259 1    
  6259 6251 6258 1    
  6260 6251 6260 1    
  6261 6261 6276 1    
  6262 6261 6267 1    
  6263 6262 6270 2    
  6264 6263 6264 1    
  6265 6263 6277 1    
  6266 6263 6270 am   BACKBONE|DICT|INTERRES
  6267 6264 6265 ar   
  6268 6264 6269 ar   
  6269 6265 6266 ar   
  6270 6265 6272 1    
  6271 6266 6273 1    
  6272 6266 6267 ar   
  6273 6267 6268 ar   
  6274 6268 6274 1    
  6275 6268 6269 ar   
  6276 6269 6275 1    
  6277 6270 6271 1    
  6278 6271 6279 1    
  6279 6271 6278 1    
  6280 6271 6280 1    
  6281 6281 6296 1    
  6282 6281 6287 1    
  6283 6282 6290 2    
  6284 6283 6284 1    
  6285 6283 6297 1    
  6286 6283 6290 am   BACKBONE|DICT|INTERRES
  6287 6284 6289 ar   
  6288 6284 6285 ar   
  6289 6285 6286 ar   
  6290 6285 6292 1    
  6291 6286 6287 ar   
  6292 6286 6293 1    
  6293 6287 6288 ar   
  6294 6288 6289 ar   
  6295 6288 6294 1    
  6296 6289 6295 1    
  6297 6290 6291 1    
  6298 6291 6298 1    
  6299 6291 6300 1    
  6300 6291 6299 1    
  6301 6301 6307 1    
  6302 6301 6316 1    
  6303 6302 6310 2    
  6304 6303 6310 am   BACKBONE|DICT|INTERRES
  6305 6303 6304 1    
  6306 6303 6317 1    
  6307 6304 6309 ar   
  6308 6304 6305 ar   
  6309 6305 6312 1    
  6310 6305 6306 ar   
  6311 6306 6313 1    
  6312 6306 6307 ar   
  6313 6307 6308 ar   
  6314 6308 6314 1    
  6315 6308 6309 ar   
  6316 6309 6315 1    
  6317 6310 6311 1    
  6318 6311 6318 1    
  6319 6311 6320 1    
  6320 6311 6319 1    
  6321 6321 6336 1    
  6322 6321 6327 1    
  6323 6322 6330 2    
  6324 6323 6337 1    
  6325 6323 6330 am   BACKBONE|DICT|INTERRES
  6326 6323 6324 1    
  6327 6324 6325 ar   
  6328 6324 6329 ar   
  6329 6325 6332 1    
  6330 6325 6326 ar   
  6331 6326 6327 ar   
  6332 6326 6333 1    
  6333 6327 6328 ar   
  6334 6328 6329 ar   
  6335 6328 6334 1    
  6336 6329 6335 1    
  6337 6330 6331 1    
  6338 6331 6339 1    
  6339 6331 6338 1    
  6340 6331 6340 1    
  6341 6341 6356 1    
  6342 6341 6347 1    
  6343 6342 6350 2    
  6344 6343 6344 1    
  6345 6343 6357 1    
  6346 6343 6350 am   BACKBONE|DICT|INTERRES
  6347 6344 6345 ar   
  6348 6344 6349 ar   
  6349 6345 6346 ar   
  6350 6345 6352 1    
  6351 6346 6353 1    
  6352 6346 6347 ar   
  6353 6347 6348 ar   
  6354 6348 6354 1    
  6355 6348 6349 ar   
  6356 6349 6355 1    
  6357 6350 6351 1    
  6358 6351 6359 1    
  6359 6351 6358 1    
  6360 6351 6360 1    
  6361 6361 6376 1    
  6362 6361 6367 1    
  6363 6362 6370 2    
  6364 6363 6364 1    
  6365 6363 6377 1    
  6366 6363 6370 am   BACKBONE|DICT|INTERRES
  6367 6364 6369 ar   
  6368 6364 6365 ar   
  6369 6365 6366 ar   
  6370 6365 6372 1    
  6371 6366 6367 ar   
  6372 6366 6373 1    
  6373 6367 6368 ar   
  6374 6368 6369 ar   
  6375 6368 6374 1    
  6376 6369 6375 1    
  6377 6370 6371 1    
  6378 6371 6378 1    
  6379 6371 6380 1    
  6380 6371 6379 1    
  6381 6381 6387 1    
  6382 6381 6396 1    
  6383 6382 6390 2    
  6384 6383 6390 am   BACKBONE|DICT|INTERRES
  6385 6383 6384 1    
  6386 6383 6397 1    
  6387 6384 6389 ar   
  6388 6384 6385 ar   
  6389 6385 6392 1    
  6390 6385 6386 ar   
  6391 6386 6393 1    
  6392 6386 6387 ar   
  6393 6387 6388 ar   
  6394 6388 6394 1    
  6395 6388 6389 ar   
  6396 6389 6395 1    
  6397 6390 6391 1    
  6398 6391 6398 1    
  6399 6391 6400 1    
  6400 6391 6399 1    
  6401 6401 6416 1    
  6402 6401 6407 1    
  6403 6402 6410 2    
  6404 6403 6417 1    
  6405 6403 6410 am   BACKBONE|DICT|INTERRES
  6406 6403 6404 1    
  6407 6404 6405 ar   
  6408 6404 6409 ar   
  6409 6405 6412 1    
  6410 6405 6406 ar   
  6411 6406 6407 ar   
  6412 6406 6413 1    
  6413 6407 6408 ar   
  6414 6408 6409 ar   
  6415 6408 6414 1    
  6416 6409 6415 1    
  6417 6410 6411 1    
  6418 6411 6419 1    
  6419 6411 6418 1    
  6420 6411 6420 1    
  6421 6421 6436 1    
  6422 6421 6427 1    
  6423 6422 6430 2    
  6424 6423 6424 1    
  6425 6423 6437 1    
  6426 6423 6430 am   BACKBONE|DICT|INTERRES
  6427 6424 6425 ar   
  6428 6424 6429 ar   
  6429 6425 6426 ar   
  6430 6425 6432 1    
  6431 6426 6433 1    
  6432 6426 6427 ar   
  6433 6427 6428 ar   
  6434 6428 6434 1    
  6435 6428 6429 ar   
  6436 6429 6435 1    
  6437 6430 6431 1    
  6438 6431 6439 1    
  6439 6431 6438 1    
  6440 6431 6440 1    
  6441 6441 6456 1    
  6442 6441 6447 1    
  6443 6442 6450 2    
  6444 6443 6444 1    
  6445 6443 6457 1    
  6446 6443 6450 am   BACKBONE|DICT|INTERRES
  6447 6444 6449 ar   
  6448 6444 6445 ar   
  6449 6445 6446 ar   
  6450 6445 6452 1    
  6451 6446 6447 ar   
  6452 6446 6453 1    
  6453 6447 6448 ar   
  6454 6448 6449 ar   
  6455 6448 6454 1    
  6456 6449 6455 1    
  6457 6450 6451 1    
  6458 6451 6458 1    
  6459 6451 6460 1    
  6460 6451 6459 1    
  6461 6461 6467 1    
  6462 6461 6476 1    
  6463 6462 6470 2    
  6464 6463 6470 am   BACKBONE|DICT|INTERRES
  6465 6463 6464 1    
  6466 6463 6477 1    
  6467 6464 6469 ar   
  6468 6464 6465 ar   
  6469 6465 6472 1    
  6470 6465 6466 ar   
  6471 6466 6473 1    
  6472 6466 6467 ar   
  6473 6467 6468 ar   
  6474 6468 6474 1    
  6475 6468 6469 ar   
  6476 6469 6475 1    
  6477 6470 6471 1    
  6478 6471 6478 1    
  6479 6471 6480 1    
  6480 6471 6479 1    
  6481 6481 6496 1    
  6482 6481 6487 1    
  6483 6482 6490 2    
  6484 6483 6497 1    
  6485 6483 6490 am   BACKBONE|DICT|INTERRES
  6486 6483 6484 1    
  6487 6484 6485 ar   
  6488 6484 6489 ar   
  6489 6485 6492 1    
  6490 6485 6486 ar   
  6491 6486 6487 ar   
  6492 6486 6493 1    
  6493 6487 6488 ar   
  6494 6488 6489 ar   
  6495 6488 6494 1    
  6496 6489 6495 1    
  6497 6490 6491 1    
  6498 6491 6499 1    
  6499 6491 6498 1    
  6500 6491 6500 1    
  6501 6501 6516 1    
  6502 6501 6507 1    
  6503 6502 6510 2    
  6504 6503 6504 1    
  6505 6503 6517 1    
  6506 6503 6510 am   BACKBONE|DICT|INTERRES
  6507 6504 6505 ar   
  6508 6504 6509 ar   
  6509 6505 6506 ar   
  6510 6505 6512 1    
  6511 6506 6513 1    
  6512 6506 6507 ar   
  6513 6507 6508 ar   
  6514 6508 6514 1    
  6515 6508 6509 ar   
  6516 6509 6515 1    
  6517 6510 6511 1    
  6518 6511 6519 1    
  6519 6511 6518 1    
  6520 6511 6520 1    
  6521 6521 6536 1    
  6522 6521 6527 1    
  6523 6522 6530 2    
  6524 6523 6524 1    
  6525 6523 6537 1    
  6526 6523 6530 am   BACKBONE|DICT|INTERRES
  6527 6524 6529 ar   
  6528 6524 6525 ar   
  6529 6525 6526 ar   
  6530 6525 6532 1    
  6531 6526 6527 ar   
  6532 6526 6533 1    
  6533 6527 6528 ar   
  6534 6528 6529 ar   
  6535 6528 6534 1    
  6536 6529 6535 1    
  6537 6530 6531 1    
  6538 6531 6538 1    
  6539 6531 6540 1    
  6540 6531 6539 1    
  6541 6541 6547 1    
  6542 6541 6556 1    
  6543 6542 6550 2    
  6544 6543 6550 am   BACKBONE|DICT|INTERRES
  6545 6543 6544 1    
  6546 6543 6557 1    
  6547 6544 6549 ar   
  6548 6544 6545 ar   
  6549 6545 6552 1    
  6550 6545 6546 ar   
  6551 6546 6553 1    
  6552 6546 6547 ar   
  6553 6547 6548 ar   
  6554 6548 6554 1    
  6555 6548 6549 ar   
  6556 6549 6555 1    
  6557 6550 6551 1    
  6558 6551 6558 1    
  6559 6551 6560 1    
  6560 6551 6559 1    
  6561 6561 6576 1    
  6562 6561 6567 1    
  6563 6562 6570 2    
  6564 6563 6577 1    
  6565 6563 6570 am   BACKBONE|DICT|INTERRES
  6566 6563 6564 1    
  6567 6564 6565 ar   
  6568 6564 6569 ar   
  6569 6565 6572 1    
  6570 6565 6566 ar   
  6571 6566 6567 ar   
  6572 6566 6573 1    
  6573 6567 6568 ar   
  6574 6568 6569 ar   
  6575 6568 6574 1    
  6576 6569 6575 1    
  6577 6570 6571 1    
  6578 6571 6579 1    
  6579 6571 6578 1    
  6580 6571 6580 1    
  6581 6581 6596 1    
  6582 6581 6587 1    
  6583 6582 6590 2    
  6584 6583 6584 1    
  6585 6583 6597 1    
  6586 6583 6590 am   BACKBONE|DICT|INTERRES
  6587 6584 6585 ar   
  6588 6584 6589 ar   
  6589 6585 6586 ar   
  6590 6585 6592 1    
  6591 6586 6593 1    
  6592 6586 6587 ar   
  6593 6587 6588 ar   
  6594 6588 6594 1    
  6595 6588 6589 ar   
  6596 6589 6595 1    
  6597 6590 6591 1    
  6598 6591 6599 1    
  6599 6591 6598 1    
  6600 6591 6600 1    
  6601 6601 6616 1    
  6602 6601 6607 1    
  6603 6602 6610 2    
  6604 6603 6604 1    
  6605 6603 6617 1    
  6606 6603 6610 am   BACKBONE|DICT|INTERRES
  6607 6604 6609 ar   
  6608 6604 6605 ar   
  6609 6605 6606 ar   
  6610 6605 6612 1    
  6611 6606 6607 ar   
  6612 6606 6613 1    
  6613 6607 6608 ar   
  6614 6608 6609 ar   
  6615 6608 6614 1    
  6616 6609 6615 1    
  6617 6610 6611 1    
  6618 6611 6618 1    
  6619 6611 6620 1    
  6620 6611 6619 1    
  6621 6621 6627 1    
  6622 6621 6636 1    
  6623 6622 6630 2    
  6624 6623 6630 am   BACKBONE|DICT|INTERRES
  6625 6623 6624 1    
  6626 6623 6637 1    
  6627 6624 6629 ar   
  6628 6624 6625 ar   
  6629 6625 6632 1    
  6630 6625 6626 ar   
  6631 6626 6633 1    
  6632 6626 6627 ar   
  6633 6627 6628 ar   
  6634 6628 6634 1    
  6635 6628 6629 ar   
  6636 6629 6635 1    
  6637 6630 6631 1    
  6638 6631 6638 1    
  6639 6631 6640 1    
  6640 6631 6639 1    
  6641 6641 6656 1    
  6642 6641 6647 1    
  6643 6642 6650 2    
  6644 6643 6657 1    
  6645 6643 6650 am   BACKBONE|DICT|INTERRES
  6646 6643 6644 1    
  6647 6644 6645 ar   
  6648 6644 6649 ar   
  6649 6645 6652 1    
  6650 6645 6646 ar   
  6651 6646 6647 ar   
  6652 6646 6653 1    
  6653 6647 6648 ar   
  6654 6648 6649 ar   
  6655 6648 6654 1    
  6656 6649 6655 1    
  6657 6650 6651 1    
  6658 6651 6659 1    
  6659 6651 6658 1    
  6660 6651 6660 1    
  6661 6661 6676 1    
  6662 6661 6667 1    
  6663 6662 6670 2    
  6664 6663 6664 1    
  6665 6663 6677 1    
  6666 6663 6670 am   BACKBONE|DICT|INTERRES
  6667 6664 6665 ar   
  6668 6664 6669 ar   
  6669 6665 6666 ar   
  6670 6665 6672 1    
  6671 6666 6673 1    
  6672 6666 6667 ar   
  6673 6667 6668 ar   
  6674 6668 6674 1    
  6675 6668 6669 ar   
  6676 6669 6675 1    
  6677 6670 6671 1    
  6678 6671 6679 1    
  6679 6671 6678 1    
  6680 6671 6680 1    
  6681 6681 6696 1    
  6682 6681 6687 1    
  6683 6682 6690 2    
  6684 6683 6684 1    
  6685 6683 6697 1    
  6686 6683 6690 am   BACKBONE|DICT|INTERRES
  6687 6684 6689 ar   
  6688 6684 6685 ar   
  6689 6685 6686 ar   
  6690 6685 6692 1    
  6691 6686 6687 ar   
  6692 6686 6693 1    
  6693 6687 6688 ar   
  6694 6688 6689 ar   
  6695 6688 6694 1    
  6696 6689 6695 1    
  6697 6690 6691 1    
  6698 6691 6698 1    
  6699 6691 6700 1    
  6700 6691 6699 1    
  6701 6701 6707 1    
  6702 6701 6716 1    
  6703 6702 6710 2    
  6704 6703 6710 am   BACKBONE|DICT|INTERRES
  6705 6703 6704 1    
  6706 6703 6717 1    
  6707 6704 6709 ar   
  6708 6704 6705 ar   
  6709 6705 6712 1    
  6710 6705 6706 ar   
  6711 6706 6713 1    
  6712 6706 6707 ar   
  6713 6707 6708 ar   
  6714 6708 6714 1    
  6715 6708 6709 ar   
  6716 6709 6715 1    
  6717 6710 6711 1    
  6718 6711 6718 1    
  6719 6711 6720 1    
  6720 6711 6719 1    
  6721 6721 6736 1    
  6722 6721 6727 1    
  6723 6722 6730 2    
  6724 6723 6737 1    
  6725 6723 6730 am   BACKBONE|DICT|INTERRES
  6726 6723 6724 1    
  6727 6724 6725 ar   
  6728 6724 6729 ar   
  6729 6725 6732 1    
  6730 6725 6726 ar   
  6731 6726 6727 ar   
  6732 6726 6733 1    
  6733 6727 6728 ar   
  6734 6728 6729 ar   
  6735 6728 6734 1    
  6736 6729 6735 1    
  6737 6730 6731 1    
  6738 6731 6739 1    
  6739 6731 6738 1    
  6740 6731 6740 1    
  6741 6741 6756 1    
  6742 6741 6747 1    
  6743 6742 6750 2    
  6744 6743 6744 1    
  6745 6743 6757 1    
  6746 6743 6750 am   BACKBONE|DICT|INTERRES
  6747 6744 6745 ar   
  6748 6744 6749 ar   
  6749 6745 6746 ar   
  6750 6745 6752 1    
  6751 6746 6753 1    
  6752 6746 6747 ar   
  6753 6747 6748 ar   
  6754 6748 6754 1    
  6755 6748 6749 ar   
  6756 6749 6755 1    
  6757 6750 6751 1    
  6758 6751 6759 1    
  6759 6751 6758 1    
  6760 6751 6760 1    
  6761 6761 6776 1    
  6762 6761 6767 1    
  6763 6762 6770 2    
  6764 6763 6764 1    
  6765 6763 6777 1    
  6766 6763 6770 am   BACKBONE|DICT|INTERRES
  6767 6764 6769 ar   
  6768 6764 6765 ar   
  6769 6765 6766 ar   
  6770 6765 6772 1    
  6771 6766 6767 ar   
  6772 6766 6773 1    
  6773 6767 6768 ar   
  6774 6768 6769 ar   
  6775 6768 6774 1    
  6776 6769 6775 1    
  6777 6770 6771 1    
  6778 6771 6778 1    
  6779 6771 6780 1    
  6780 6771 6779 1    
  6781 6781 6787 1    
  6782 6781 6796 1    
  6783 6782 6790 2    
  6784 6783 6790 am   BACKBONE|DICT|INTERRES
  6785 6783 6784 1    
  6786 6783 6797 1    
  6787 6784 6789 ar   
  6788 6784 6785 ar   
  6789 6785 6792 1    
  6790 6785 6786 ar   
  6791 6786 6793 1    
  6792 6786 6787 ar   
  6793 6787 6788 ar   
  6794 6788 6794 1    
  6795 6788 6789 ar   
  6796 6789 6795 1    
  6797 6790 6791 1    
  6798 6791 6798 1    
  6799 6791 6800 1    
  6800 6791 6799 1    
  6801 6801 6816 1    
  6802 6801 6807 1    
  6803 6802 6810 2    
  6804 6803 6817 1    
  6805 6803 6810 am   BACKBONE|DICT|INTERRES
  6806 6803 6804 1    
  6807 6804 6805 ar   
  6808 6804 6809 ar   
  6809 6805 6812 1    
  6810 6805 6806 ar   
  6811 6806 6807 ar   
  6812 6806 6813 1    
  6813 6807 6808 ar   
  6814 6808 6809 ar   
  6815 6808 6814 1    
  6816 6809 6815 1    
  6817 6810 6811 1    
  6818 6811 6819 1    
  6819 6811 6818 1    
  6820 6811 6820 1    
  6821 6821 6836 1    
  6822 6821 6827 1    
  6823 6822 6830 2    
  6824 6823 6824 1    
  6825 6823 6837 1    
  6826 6823 6830 am   BACKBONE|DICT|INTERRES
  6827 6824 6825 ar   
  6828 6824 6829 ar   
  6829 6825 6826 ar   
  6830 6825 6832 1    
  6831 6826 6833 1    
  6832 6826 6827 ar   
  6833 6827 6828 ar   
  6834 6828 6834 1    
  6835 6828 6829 ar   
  6836 6829 6835 1    
  6837 6830 6831 1    
  6838 6831 6839 1    
  6839 6831 6838 1    
  6840 6831 6840 1    
  6841 6841 6856 1    
  6842 6841 6847 1    
  6843 6842 6850 2    
  6844 6843 6844 1    
  6845 6843 6857 1    
  6846 6843 6850 am   BACKBONE|DICT|INTERRES
  6847 6844 6849 ar   
  6848 6844 6845 ar   
  6849 6845 6846 ar   
  6850 6845 6852 1    
  6851 6846 6847 ar   
  6852 6846 6853 1    
  6853 6847 6848 ar   
  6854 6848 6849 ar   
  6855 6848 6854 1    
  6856 6849 6855 1    
  6857 6850 6851 1    
  6858 6851 6858 1    
  6859 6851 6860 1    
  6860 6851 6859 1    
  6861 6861 6867 1    
  6862 6861 6876 1    
  6863 6862 6870 2    
  6864 6863 6870 am   BACKBONE|DICT|INTERRES
  6865 6863 6864 1    
  6866 6863 6877 1    
  6867 6864 6869 ar   
  6868 6864 6865 ar   
  6869 6865 6872 1    
  6870 6865 6866 ar   
  6871 6866 6873 1    
  6872 6866 6867 ar   
  6873 6867 6868 ar   
  6874 6868 6874 1    
  6875 6868 6869 ar   
  6876 6869 6875 1    
  6877 6870 6871 1    
  6878 6871 6878 1    
  6879 6871 6880 1    
  6880 6871 6879 1    
  6881 6881 6896 1    
  6882 6881 6887 1    
  6883 6882 6890 2    
  6884 6883 6897 1    
  6885 6883 6890 am   BACKBONE|DICT|INTERRES
  6886 6883 6884 1    
  6887 6884 6885 ar   
  6888 6884 6889 ar   
  6889 6885 6892 1    
  6890 6885 6886 ar   
  6891 6886 6887 ar   
  6892 6886 6893 1    
  6893 6887 6888 ar   
  6894 6888 6889 ar   
  6895 6888 6894 1    
  6896 6889 6895 1    
  6897 6890 6891 1    
  6898 6891 6899 1    
  6899 6891 6898 1    
  6900 6891 6900 1    
  6901 6901 6916 1    
  6902 6901 6907 1    
  6903 6902 6910 2    
  6904 6903 6904 1    
  6905 6903 6917 1    
  6906 6903 6910 am   BACKBONE|DICT|INTERRES
  6907 6904 6905 ar   
  6908 6904 6909 ar   
  6909 6905 6906 ar   
  6910 6905 6912 1    
  6911 6906 6913 1    
  6912 6906 6907 ar   
  6913 6907 6908 ar   
  6914 6908 6914 1    
  6915 6908 6909 ar   
  6916 6909 6915 1    
  6917 6910 6911 1    
  6918 6911 6919 1    
  6919 6911 6918 1    
  6920 6911 6920 1    
  6921 6921 6936 1    
  6922 6921 6927 1    
  6923 6922 6930 2    
  6924 6923 6924 1    
  6925 6923 6937 1    
  6926 6923 6930 am   BACKBONE|DICT|INTERRES
  6927 6924 6929 ar   
  6928 6924 6925 ar   
  6929 6925 6926 ar   
  6930 6925 6932 1    
  6931 6926 6927 ar   
  6932 6926 6933 1    
  6933 6927 6928 ar   
  6934 6928 6929 ar   
  6935 6928 6934 1    
  6936 6929 6935 1    
  6937 6930 6931 1    
  6938 6931 6938 1    
  6939 6931 6940 1    
  6940 6931 6939 1    
  6941 6941 6947 1    
  6942 6941 6956 1    
  6943 6942 6950 2    
  6944 6943 6950 am   BACKBONE|DICT|INTERRES
  6945 6943 6944 1    
  6946 6943 6957 1    
  6947 6944 6949 ar   
  6948 6944 6945 ar   
  6949 6945 6952 1    
  6950 6945 6946 ar   
  6951 6946 6953 1    
  6952 6946 6947 ar   
  6953 6947 6948 ar   
  6954 6948 6954 1    
  6955 6948 6949 ar   
  6956 6949 6955 1    
  6957 6950 6951 1    
  6958 6951 6958 1    
  6959 6951 6960 1    
  6960 6951 6959 1    
  6961 6961 6976 1    
  6962 6961 6967 1    
  6963 6962 6970 2    
  6964 6963 6977 1    
  6965 6963 6970 am   BACKBONE|DICT|INTERRES
  6966 6963 6964 1    
  6967 6964 6965 ar   
  6968 6964 6969 ar   
  6969 6965 6972 1    
  6970 6965 6966 ar   
  6971 6966 6967 ar   
  6972 6966 6973 1    
  6973 6967 6968 ar   
  6974 6968 6969 ar   
  6975 6968 6974 1    
  6976 6969 6975 1    
  6977 6970 6971 1    
  6978 6971 6979 1    
  6979 6971 6978 1    
  6980 6971 6980 1    
  6981 6981 6996 1    
  6982 6981 6987 1    
  6983 6982 6990 2    
  6984 6983 6984 1    
  6985 6983 6997 1    
  6986 6983 6990 am   BACKBONE|DICT|INTERRES
  6987 6984 6985 ar   
  6988 6984 6989 ar   
  6989 6985 6986 ar   
  6990 6985 6992 1    
  6991 6986 6993 1    
  6992 6986 6987 ar   
  6993 6987 6988 ar   
  6994 6988 6994 1    
  6995 6988 6989 ar   
  6996 6989 6995 1    
  6997 6990 6991 1    
  6998 6991 6999 1    
  6999 6991 6998 1    
  7000 6991 7000 1    
  7001 7001 7016 1    
  7002 7001 7007 1    
  7003 7002 7010 2    
  7004 7003 7004 1    
  7005 7003 7017 1    
  7006 7003 7010 am   BACKBONE|DICT|INTERRES
  7007 7004 7009 ar   
  7008 7004 7005 ar   
  7009 7005 7006 ar   
  7010 7005 7012 1    
  7011 7006 7007 ar   
  7012 7006 7013 1    
  7013 7007 7008 ar   
  7014 7008 7009 ar   
  7015 7008 7014 1    
  7016 7009 7015 1    
  7017 7010 7011 1    
  7018 7011 7018 1    
  7019 7011 7020 1    
  7020 7011 7019 1    
  7021 7021 7027 1    
  7022 7021 7036 1    
  7023 7022 7030 2    
  7024 7023 7030 am   BACKBONE|DICT|INTERRES
  7025 7023 7024 1    
  7026 7023 7037 1    
  7027 7024 7029 ar   
  7028 7024 7025 ar   
  7029 7025 7032 1    
  7030 7025 7026 ar   
  7031 7026 7033 1    
  7032 7026 7027 ar   
  7033 7027 7028 ar   
  7034 7028 7034 1    
  7035 7028 7029 ar   
  7036 7029 7035 1    
  7037 7030 7031 1    
  7038 7031 7038 1    
  7039 7031 7040 1    
  7040 7031 7039 1    
  7041 7041 7056 1    
  7042 7041 7047 1    
  7043 7042 7050 2    
  7044 7043 7057 1    
  7045 7043 7050 am   BACKBONE|DICT|INTERRES
  7046 7043 7044 1    
  7047 7044 7045 ar   
  7048 7044 7049 ar   
  7049 7045 7052 1    
  7050 7045 7046 ar   
  7051 7046 7047 ar   
  7052 7046 7053 1    
  7053 7047 7048 ar   
  7054 7048 7049 ar   
  7055 7048 7054 1    
  7056 7049 7055 1    
  7057 7050 7051 1    
  7058 7051 7059 1    
  7059 7051 7058 1    
  7060 7051 7060 1    
  7061 7061 7076 1    
  7062 7061 7067 1    
  7063 7062 7070 2    
  7064 7063 7064 1    
  7065 7063 7077 1    
  7066 7063 7070 am   BACKBONE|DICT|INTERRES
  7067 7064 7065 ar   
  7068 7064 7069 ar   
  7069 7065 7066 ar   
  7070 7065 7072 1    
  7071 7066 7073 1    
  7072 7066 7067 ar   
  7073 7067 7068 ar   
  7074 7068 7074 1    
  7075 7068 7069 ar   
  7076 7069 7075 1    
  7077 7070 7071 1    
  7078 7071 7079 1    
  7079 7071 7078 1    
  7080 7071 7080 1    
  7081 7081 7096 1    
  7082 7081 7087 1    
  7083 7082 7090 2    
  7084 7083 7084 1    
  7085 7083 7097 1    
  7086 7083 7090 am   BACKBONE|DICT|INTERRES
  7087 7084 7089 ar   
  7088 7084 7085 ar   
  7089 7085 7086 ar   
  7090 7085 7092 1    
  7091 7086 7087 ar   
  7092 7086 7093 1    
  7093 7087 7088 ar   
  7094 7088 7089 ar   
  7095 7088 7094 1    
  7096 7089 7095 1    
  7097 7090 7091 1    
  7098 7091 7098 1    
  7099 7091 7100 1    
  7100 7091 7099 1    
  7101 7101 7107 1    
  7102 7101 7116 1    
  7103 7102 7110 2    
  7104 7103 7110 am   BACKBONE|DICT|INTERRES
  7105 7103 7104 1    
  7106 7103 7117 1    
  7107 7104 7109 ar   
  7108 7104 7105 ar   
  7109 7105 7112 1    
  7110 7105 7106 ar   
  7111 7106 7113 1    
  7112 7106 7107 ar   
  7113 7107 7108 ar   
  7114 7108 7114 1    
  7115 7108 7109 ar   
  7116 7109 7115 1    
  7117 7110 7111 1    
  7118 7111 7118 1    
  7119 7111 7120 1    
  7120 7111 7119 1    
  7121 7121 7136 1    
  7122 7121 7127 1    
  7123 7122 7130 2    
  7124 7123 7137 1    
  7125 7123 7130 am   BACKBONE|DICT|INTERRES
  7126 7123 7124 1    
  7127 7124 7125 ar   
  7128 7124 7129 ar   
  7129 7125 7132 1    
  7130 7125 7126 ar   
  7131 7126 7127 ar   
  7132 7126 7133 1    
  7133 7127 7128 ar   
  7134 7128 7129 ar   
  7135 7128 7134 1    
  7136 7129 7135 1    
  7137 7130 7131 1    
  7138 7131 7139 1    
  7139 7131 7138 1    
  7140 7131 7140 1    
  7141 7141 7156 1    
  7142 7141 7147 1    
  7143 7142 7150 2    
  7144 7143 7144 1    
  7145 7143 7157 1    
  7146 7143 7150 am   BACKBONE|DICT|INTERRES
  7147 7144 7145 ar   
  7148 7144 7149 ar   
  7149 7145 7146 ar   
  7150 7145 7152 1    
  7151 7146 7153 1    
  7152 7146 7147 ar   
  7153 7147 7148 ar   
  7154 7148 7154 1    
  7155 7148 7149 ar   
  7156 7149 7155 1    
  7157 7150 7151 1    
  7158 7151 7159 1    
  7159 7151 7158 1    
  7160 7151 7160 1    
  7161 7161 7176 1    
  7162 7161 7167 1    
  7163 7162 7170 2    
  7164 7163 7164 1    
  7165 7163 7177 1    
  7166 7163 7170 am   BACKBONE|DICT|INTERRES
  7167 7164 7169 ar   
  7168 7164 7165 ar   
  7169 7165 7166 ar   
  7170 7165 7172 1    
  7171 7166 7167 ar   
  7172 7166 7173 1    
  7173 7167 7168 ar   
  7174 7168 7169 ar   
  7175 7168 7174 1    
  7176 7169 7175 1    
  7177 7170 7171 1    
  7178 7171 7178 1    
  7179 7171 7180 1    
  7180 7171 7179 1    
  7181 7181 7187 1    
  7182 7181 7196 1    
  7183 7182 7190 2    
  7184 7183 7190 am   BACKBONE|DICT|INTERRES
  7185 7183 7184 1    
  7186 7183 7197 1    
  7187 7184 7189 ar   
  7188 7184 7185 ar   
  7189 7185 7192 1    
  7190 7185 7186 ar   
  7191 7186 7193 1    
  7192 7186 7187 ar   
  7193 7187 7188 ar   
  7194 7188 7194 1    
  7195 7188 7189 ar   
  7196 7189 7195 1    
  7197 7190 7191 1    
  7198 7191 7198 1    
  7199 7191 7200 1    
  7200 7191 7199 1    
  7201 7201 7216 1    
  7202 7201 7207 1    
  7203 7202 7210 2    
  7204 7203 7217 1    
  7205 7203 7210 am   BACKBONE|DICT|INTERRES
  7206 7203 7204 1    
  7207 7204 7205 ar   
  7208 7204 7209 ar   
  7209 7205 7212 1    
  7210 7205 7206 ar   
  7211 7206 7207 ar   
  7212 7206 7213 1    
  7213 7207 7208 ar   
  7214 7208 7209 ar   
  7215 7208 7214 1    
  7216 7209 7215 1    
  7217 7210 7211 1    
  7218 7211 7219 1    
  7219 7211 7218 1    
  7220 7211 7220 1    
  7221 7221 7236 1    
  7222 7221 7227 1    
  7223 7222 7230 2    
  7224 7223 7224 1    
  7225 7223 7237 1    
  7226 7223 7230 am   BACKBONE|DICT|INTERRES
  7227 7224 7225 ar   
  7228 7224 7229 ar   
  7229 7225 7226 ar   
  7230 7225 7232 1    
  7231 7226 7233 1    
  7232 7226 7227 ar   
  7233 7227 7228 ar   
  7234 7228 7234 1    
  7235 7228 7229 ar   
  7236 7229 7235 1    
  7237 7230 7231 1    
  7238 7231 7239 1    
  7239 7231 7238 1    
  7240 7231 7240 1    
  7241 7241 7256 1    
  7242 7241 7247 1    
  7243 7242 7250 2    
  7244 7243 7244 1    
  7245 7243 7257 1    
  7246 7243 7250 am   BACKBONE|DICT|INTERRES
  7247 7244 7249 ar   
  7248 7244 7245 ar   
  7249 7245 7246 ar   
  7250 7245 7252 1    
  7251 7246 7247 ar   
  7252 7246 7253 1    
  7253 7247 7248 ar   
  7254 7248 7249 ar   
  7255 7248 7254 1    
  7256 7249 7255 1    
  7257 7250 7251 1    
  7258 7251 7258 1    
  7259 7251 7260 1    
  7260 7251 7259 1    
  7261 7261 7267 1    
  7262 7261 7276 1    
  7263 7262 7270 2    
  7264 7263 7270 am   BACKBONE|DICT|INTERRES
  7265 7263 7264 1    
  7266 7263 7277 1    
  7267 7264 7269 ar   
  7268 7264 7265 ar   
  7269 7265 7272 1    
  7270 7265 7266 ar   
  7271 7266 7273 1    
  7272 7266 7267 ar   
  7273 7267 7268 ar   
  7274 7268 7274 1    
  7275 7268 7269 ar   
  7276 7269 7275 1    
  7277 7270 7271 1    
  7278 7271 7278 1    
  7279 7271 7280 1    
  7280 7271 7279 1    
  7281 7281 7296 1    
  7282 7281 7287 1    
  7283 7282 7290 2    
  7284 7283 7297 1    
  7285 7283 7290 am   BACKBONE|DICT|INTERRES
  7286 7283 7284 1    
  7287 7284 7285 ar   
  7288 7284 7289 ar   
  7289 7285 7292 1    
  7290 7285 7286 ar   
  7291 7286 7287 ar   
  7292 7286 7293 1    
  7293 7287 7288 ar   
  7294 7288 7289 ar   
  7295 7288 7294 1    
  7296 7289 7295 1    
  7297 7290 7291 1    
  7298 7291 7299 1    
  7299 7291 7298 1    
  7300 7291 7300 1    
  7301 7301 7316 1    
  7302 7301 7307 1    
  7303 7302 7310 2    
  7304 7303 7304 1    
  7305 7303 7317 1    
  7306 7303 7310 am   BACKBONE|DICT|INTERRES
  7307 7304 7305 ar   
  7308 7304 7309 ar   
  7309 7305 7306 ar   
  7310 7305 7312 1    
  7311 7306 7313 1    
  7312 7306 7307 ar   
  7313 7307 7308 ar   
  7314 7308 7314 1    
  7315 7308 7309 ar   
  7316 7309 7315 1    
  7317 7310 7311 1    
  7318 7311 7319 1    
  7319 7311 7318 1    
  7320 7311 7320 1    
  7321 7321 7336 1    
  7322 7321 7327 1    
  7323 7322 7330 2    
  7324 7323 7324 1    
  7325 7323 7337 1    
  7326 7323 7330 am   BACKBONE|DICT|INTERRES
  7327 7324 7329 ar   
  7328 7324 7325 ar   
  7329 7325 7326 ar   
  7330 7325 7332 1    
  7331 7326 7327 ar   
  7332 7326 7333 1    
  7333 7327 7328 ar   
  7334 7328 7329 ar   
  7335 7328 7334 1    
  7336 7329 7335 1    
  7337 7330 7331 1    
  7338 7331 7338 1    
  7339 7331 7340 1    
  7340 7331 7339 1    
  7341 7341 7347 1    
  7342 7341 7356 1    
  7343 7342 7350 2    
  7344 7343 7350 am   BACKBONE|DICT|INTERRES
  7345 7343 7344 1    
  7346 7343 7357 1    
  7347 7344 7349 ar   
  7348 7344 7345 ar   
  7349 7345 7352 1    
  7350 7345 7346 ar   
  7351 7346 7353 1    
  7352 7346 7347 ar   
  7353 7347 7348 ar   
  7354 7348 7354 1    
  7355 7348 7349 ar   
  7356 7349 7355 1    
  7357 7350 7351 1    
  7358 7351 7358 1    
  7359 7351 7360 1    
  7360 7351 7359 1    
  7361 7361 7376 1    
  7362 7361 7367 1    
  7363 7362 7370 2    
  7364 7363 7377 1    
  7365 7363 7370 am   BACKBONE|DICT|INTERRES
  7366 7363 7364 1    
  7367 7364 7365 ar   
  7368 7364 7369 ar   
  7369 7365 7372 1    
  7370 7365 7366 ar   
  7371 7366 7367 ar   
  7372 7366 7373 1    
  7373 7367 7368 ar   
  7374 7368 7369 ar   
  7375 7368 7374 1    
  7376 7369 7375 1    
  7377 7370 7371 1    
  7378 7371 7379 1    
  7379 7371 7378 1    
  7380 7371 7380 1    
  7381 7381 7396 1    
  7382 7381 7387 1    
  7383 7382 7390 2    
  7384 7383 7384 1    
  7385 7383 7397 1    
  7386 7383 7390 am   BACKBONE|DICT|INTERRES
  7387 7384 7385 ar   
  7388 7384 7389 ar   
  7389 7385 7386 ar   
  7390 7385 7392 1    
  7391 7386 7393 1    
  7392 7386 7387 ar   
  7393 7387 7388 ar   
  7394 7388 7394 1    
  7395 7388 7389 ar   
  7396 7389 7395 1    
  7397 7390 7391 1    
  7398 7391 7399 1    
  7399 7391 7398 1    
  7400 7391 7400 1    
  7401 7401 7416 1    
  7402 7401 7407 1    
  7403 7402 7410 2    
  7404 7403 7404 1    
  7405 7403 7417 1    
  7406 7403 7410 am   BACKBONE|DICT|INTERRES
  7407 7404 7409 ar   
  7408 7404 7405 ar   
  7409 7405 7406 ar   
  7410 7405 7412 1    
  7411 7406 7407 ar   
  7412 7406 7413 1    
  7413 7407 7408 ar   
  7414 7408 7409 ar   
  7415 7408 7414 1    
  7416 7409 7415 1    
  7417 7410 7411 1    
  7418 7411 7418 1    
  7419 7411 7420 1    
  7420 7411 7419 1    
  7421 7421 7427 1    
  7422 7421 7436 1    
  7423 7422 7430 2    
  7424 7423 7430 am   BACKBONE|DICT|INTERRES
  7425 7423 7424 1    
  7426 7423 7437 1    
  7427 7424 7429 ar   
  7428 7424 7425 ar   
  7429 7425 7432 1    
  7430 7425 7426 ar   
  7431 7426 7433 1    
  7432 7426 7427 ar   
  7433 7427 7428 ar   
  7434 7428 7434 1    
  7435 7428 7429 ar   
  7436 7429 7435 1    
  7437 7430 7431 1    
  7438 7431 7438 1    
  7439 7431 7440 1    
  7440 7431 7439 1    
  7441 7441 7456 1    
  7442 7441 7447 1    
  7443 7442 7450 2    
  7444 7443 7457 1    
  7445 7443 7450 am   BACKBONE|DICT|INTERRES
  7446 7443 7444 1    
  7447 7444 7445 ar   
  7448 7444 7449 ar   
  7449 7445 7452 1    
  7450 7445 7446 ar   
  7451 7446 7447 ar   
  7452 7446 7453 1    
  7453 7447 7448 ar   
  7454 7448 7449 ar   
  7455 7448 7454 1    
  7456 7449 7455 1    
  7457 7450 7451 1    
  7458 7451 7459 1    
  7459 7451 7458 1    
  7460 7451 7460 1    
  7461 7461 7476 1    
  7462 7461 7467 1    
  7463 7462 7470 2    
  7464 7463 7464 1    
  7465 7463 7477 1    
  7466 7463 7470 am   BACKBONE|DICT|INTERRES
  7467 7464 7465 ar   
  7468 7464 7469 ar   
  7469 7465 7466 ar   
  7470 7465 7472 1    
  7471 7466 7473 1    
  7472 7466 7467 ar   
  7473 7467 7468 ar   
  7474 7468 7474 1    
  7475 7468 7469 ar   
  7476 7469 7475 1    
  7477 7470 7471 1    
  7478 7471 7479 1    
  7479 7471 7478 1    
  7480 7471 7480 1    
  7481 7481 7496 1    
  7482 7481 7487 1    
  7483 7482 7490 2    
  7484 7483 7484 1    
  7485 7483 7497 1    
  7486 7483 7490 am   BACKBONE|DICT|INTERRES
  7487 7484 7489 ar   
  7488 7484 7485 ar   
  7489 7485 7486 ar   
  7490 7485 7492 1    
  7491 7486 7487 ar   
  7492 7486 7493 1    
  7493 7487 7488 ar   
  7494 7488 7489 ar   
  7495 7488 7494 1    
  7496 7489 7495 1    
  7497 7490 7491 1    
  7498 7491 7498 1    
  7499 7491 7500 1    
  7500 7491 7499 1    
  7501 7501 7507 1    
  7502 7501 7516 1    
  7503 7502 7510 2    
  7504 7503 7510 am   BACKBONE|DICT|INTERRES
  7505 7503 7504 1    
  7506 7503 7517 1    
  7507 7504 7509 ar   
  7508 7504 7505 ar   
  7509 7505 7512 1    
  7510 7505 7506 ar   
  7511 7506 7513 1    
  7512 7506 7507 ar   
  7513 7507 7508 ar   
  7514 7508 7514 1    
  7515 7508 7509 ar   
  7516 7509 7515 1    
  7517 7510 7511 1    
  7518 7511 7518 1    
  7519 7511 7520 1    
  7520 7511 7519 1    
  7521 7521 7536 1    
  7522 7521 7527 1    
  7523 7522 7530 2    
  7524 7523 7537 1    
  7525 7523 7530 am   BACKBONE|DICT|INTERRES
  7526 7523 7524 1    
  7527 7524 7525 ar   
  7528 7524 7529 ar   
  7529 7525 7532 1    
  7530 7525 7526 ar   
  7531 7526 7527 ar   
  7532 7526 7533 1    
  7533 7527 7528 ar   
  7534 7528 7529 ar   
  7535 7528 7534 1    
  7536 7529 7535 1    
  7537 7530 7531 1    
  7538 7531 7539 1    
  7539 7531 7538 1    
  7540 7531 7540 1    
  7541 7541 7556 1    
  7542 7541 7547 1    
  7543 7542 7550 2    
  7544 7543 7544 1    
  7545 7543 7557 1    
  7546 7543 7550 am   BACKBONE|DICT|INTERRES
  7547 7544 7545 ar   
  7548 7544 7549 ar   
  7549 7545 7546 ar   
  7550 7545 7552 1    
  7551 7546 7553 1    
  7552 7546 7547 ar   
  7553 7547 7548 ar   
  7554 7548 7554 1    
  7555 7548 7549 ar   
  7556 7549 7555 1    
  7557 7550 7551 1    
  7558 7551 7559 1    
  7559 7551 7558 1    
  7560 7551 7560 1    
  7561 7561 7576 1    
  7562 7561 7567 1    
  7563 7562 7570 2    
  7564 7563 7564 1    
  7565 7563 7577 1    
  7566 7563 7570 am   BACKBONE|DICT|INTERRES
  7567 7564 7569 ar   
  7568 7564 7565 ar   
  7569 7565 7566 ar   
  7570 7565 7572 1    
  7571 7566 7567 ar   
  7572 7566 7573 1    
  7573 7567 7568 ar   
  7574 7568 7569 ar   
  7575 7568 7574 1    
  7576 7569 7575 1    
  7577 7570 7571 1    
  7578 7571 7578 1    
  7579 7571 7580 1    
  7580 7571 7579 1    
  7581 7581 7587 1    
  7582 7581 7596 1    
  7583 7582 7590 2    
  7584 7583 7590 am   BACKBONE|DICT|INTERRES
  7585 7583 7584 1    
  7586 7583 7597 1    
  7587 7584 7589 ar   
  7588 7584 7585 ar   
  7589 7585 7592 1    
  7590 7585 7586 ar   
  7591 7586 7593 1    
  7592 7586 7587 ar   
  7593 7587 7588 ar   
  7594 7588 7594 1    
  7595 7588 7589 ar   
  7596 7589 7595 1    
  7597 7590 7591 1    
  7598 7591 7598 1    
  7599 7591 7600 1    
  7600 7591 7599 1    
  7601 7601 7616 1    
  7602 7601 7607 1    
  7603 7602 7610 2    
  7604 7603 7617 1    
  7605 7603 7610 am   BACKBONE|DICT|INTERRES
  7606 7603 7604 1    
  7607 7604 7605 ar   
  7608 7604 7609 ar   
  7609 7605 7612 1    
  7610 7605 7606 ar   
  7611 7606 7607 ar   
  7612 7606 7613 1    
  7613 7607 7608 ar   
  7614 7608 7609 ar   
  7615 7608 7614 1    
  7616 7609 7615 1    
  7617 7610 7611 1    
  7618 7611 7619 1    
  7619 7611 7618 1    
  7620 7611 7620 1    
  7621 7621 7636 1    
  7622 7621 7627 1    
  7623 7622 7630 2    
  7624 7623 7624 1    
  7625 7623 7637 1    
  7626 7623 7630 am   BACKBONE|DICT|INTERRES
  7627 7624 7625 ar   
  7628 7624 7629 ar   
  7629 7625 7626 ar   
  7630 7625 7632 1    
  7631 7626 7633 1    
  7632 7626 7627 ar   
  7633 7627 7628 ar   
  7634 7628 7634 1    
  7635 7628 7629 ar   
  7636 7629 7635 1    
  7637 7630 7631 1    
  7638 7631 7639 1    
  7639 7631 7638 1    
  7640 7631 7640 1    
  7641 7641 7656 1    
  7642 7641 7647 1    
  7643 7642 7650 2    
  7644 7643 7644 1    
  7645 7643 7657 1    
  7646 7643 7650 am   BACKBONE|DICT|INTERRES
  7647 7644 7649 ar   
  7648 7644 7645 ar   
  7649 7645 7646 ar   
  7650 7645 7652 1    
  7651 7646 7647 ar   
  7652 7646 7653 1    
  7653 7647 7648 ar   
  7654 7648 7649 ar   
  7655 7648 7654 1    
  7656 7649 7655 1    
  7657 7650 7651 1    
  7658 7651 7658 1    
  7659 7651 7660 1    
  7660 7651 7659 1    
  7661 7661 7667 1    
  7662 7661 7676 1    
  7663 7662 7670 2    
  7664 7663 7670 am   BACKBONE|DICT|INTERRES
  7665 7663 7664 1    
  7666 7663 7677 1    
  7667 7664 7669 ar   
  7668 7664 7665 ar   
  7669 7665 7672 1    
  7670 7665 7666 ar   
  7671 7666 7673 1    
  7672 7666 7667 ar   
  7673 7667 7668 ar   
  7674 7668 7674 1    
  7675 7668 7669 ar   
  7676 7669 7675 1    
  7677 7670 7671 1    
  7678 7671 7678 1    
  7679 7671 7680 1    
  7680 7671 7679 1    
  7681 7681 7696 1    
  7682 7681 7687 1    
  7683 7682 7690 2    
  7684 7683 7697 1    
  7685 7683 7690 am   BACKBONE|DICT|INTERRES
  7686 7683 7684 1    
  7687 7684 7685 ar   
  7688 7684 7689 ar   
  7689 7685 7692 1    
  7690 7685 7686 ar   
  7691 7686 7687 ar   
  7692 7686 7693 1    
  7693 7687 7688 ar   
  7694 7688 7689 ar   
  7695 7688 7694 1    
  7696 7689 7695 1    
  7697 7690 7691 1    
  7698 7691 7699 1    
  7699 7691 7698 1    
  7700 7691 7700 1    
  7701 7701 7716 1    
  7702 7701 7707 1    
  7703 7702 7710 2    
  7704 7703 7704 1    
  7705 7703 7717 1    
  7706 7703 7710 am   BACKBONE|DICT|INTERRES
  7707 7704 7705 ar   
  7708 7704 7709 ar   
  7709 7705 7706 ar   
  7710 7705 7712 1    
  7711 7706 7713 1    
  7712 7706 7707 ar   
  7713 7707 7708 ar   
  7714 7708 7714 1    
  7715 7708 7709 ar   
  7716 7709 7715 1    
  7717 7710 7711 1    
  7718 7711 7719 1    
  7719 7711 7718 1    
  7720 7711 7720 1    
  7721 7721 7736 1    
  7722 7721 7727 1    
  7723 7722 7730 2    
  7724 7723 7724 1    
  7725 7723 7737 1    
  7726 7723 7730 am   BACKBONE|DICT|INTERRES
  7727 7724 7729 ar   
  7728 7724 7725 ar   
  7729 7725 7726 ar   
  7730 7725 7732 1    
  7731 7726 7727 ar   
  7732 7726 7733 1    
  7733 7727 7728 ar   
  7734 7728 7729 ar   
  7735 7728 7734 1    
  7736 7729 7735 1    
  7737 7730 7731 1    
  7738 7731 7738 1    
  7739 7731 7740 1    
  7740 7731 7739 1    
  7741 7741 7747 1    
  7742 7741 7756 1    
  7743 7742 7750 2    
  7744 7743 7750 am   BACKBONE|DICT|INTERRES
  7745 7743 7744 1    
  7746 7743 7757 1    
  7747 7744 7749 ar   
  7748 7744 7745 ar   
  7749 7745 7752 1    
  7750 7745 7746 ar   
  7751 7746 7753 1    
  7752 7746 7747 ar   
  7753 7747 7748 ar   
  7754 7748 7754 1    
  7755 7748 7749 ar   
  7756 7749 7755 1    
  7757 7750 7751 1    
  7758 7751 7758 1    
  7759 7751 7760 1    
  7760 7751 7759 1    
  7761 7761 7776 1    
  7762 7761 7767 1    
  7763 7762 7770 2    
  7764 7763 7777 1    
  7765 7763 7770 am   BACKBONE|DICT|INTERRES
  7766 7763 7764 1    
  7767 7764 7765 ar   
  7768 7764 7769 ar   
  7769 7765 7772 1    
  7770 7765 7766 ar   
  7771 7766 7767 ar   
  7772 7766 7773 1    
  7773 7767 7768 ar   
  7774 7768 7769 ar   
  7775 7768 7774 1    
  7776 7769 7775 1    
  7777 7770 7771 1    
  7778 7771 7779 1    
  7779 7771 7778 1    
  7780 7771 7780 1    
  7781 7781 7796 1    
  7782 7781 7787 1    
  7783 7782 7790 2    
  7784 7783 7784 1    
  7785 7783 7797 1    
  7786 7783 7790 am   BACKBONE|DICT|INTERRES
  7787 7784 7785 ar   
  7788 7784 7789 ar   
  7789 7785 7786 ar   
  7790 7785 7792 1    
  7791 7786 7793 1    
  7792 7786 7787 ar   
  7793 7787 7788 ar   
  7794 7788 7794 1    
  7795 7788 7789 ar   
  7796 7789 7795 1    
  7797 7790 7791 1    
  7798 7791 7799 1    
  7799 7791 7798 1    
  7800 7791 7800 1    
  7801 7801 7816 1    
  7802 7801 7807 1    
  7803 7802 7810 2    
  7804 7803 7804 1    
  7805 7803 7817 1    
  7806 7803 7810 am   BACKBONE|DICT|INTERRES
  7807 7804 7809 ar   
  7808 7804 7805 ar   
  7809 7805 7806 ar   
  7810 7805 7812 1    
  7811 7806 7807 ar   
  7812 7806 7813 1    
  7813 7807 7808 ar   
  7814 7808 7809 ar   
  7815 7808 7814 1    
  7816 7809 7815 1    
  7817 7810 7811 1    
  7818 7811 7818 1    
  7819 7811 7820 1    
  7820 7811 7819 1    
  7821 7821 7827 1    
  7822 7821 7836 1    
  7823 7822 7830 2    
  7824 7823 7830 am   BACKBONE|DICT|INTERRES
  7825 7823 7824 1    
  7826 7823 7837 1    
  7827 7824 7829 ar   
  7828 7824 7825 ar   
  7829 7825 7832 1    
  7830 7825 7826 ar   
  7831 7826 7833 1    
  7832 7826 7827 ar   
  7833 7827 7828 ar   
  7834 7828 7834 1    
  7835 7828 7829 ar   
  7836 7829 7835 1    
  7837 7830 7831 1    
  7838 7831 7838 1    
  7839 7831 7840 1    
  7840 7831 7839 1    
  7841 7841 7856 1    
  7842 7841 7847 1    
  7843 7842 7850 2    
  7844 7843 7857 1    
  7845 7843 7850 am   BACKBONE|DICT|INTERRES
  7846 7843 7844 1    
  7847 7844 7845 ar   
  7848 7844 7849 ar   
  7849 7845 7852 1    
  7850 7845 7846 ar   
  7851 7846 7847 ar   
  7852 7846 7853 1    
  7853 7847 7848 ar   
  7854 7848 7849 ar   
  7855 7848 7854 1    
  7856 7849 7855 1    
  7857 7850 7851 1    
  7858 7851 7859 1    
  7859 7851 7858 1    
  7860 7851 7860 1    
  7861 7861 7876 1    
  7862 7861 7867 1    
  7863 7862 7870 2    
  7864 7863 7864 1    
  7865 7863 7877 1    
  7866 7863 7870 am   BACKBONE|DICT|INTERRES
  7867 7864 7865 ar   
  7868 7864 7869 ar   
  7869 7865 7866 ar   
  7870 7865 7872 1    
  7871 7866 7873 1    
  7872 7866 7867 ar   
  7873 7867 7868 ar   
  7874 7868 7874 1    
  7875 7868 7869 ar   
  7876 7869 7875 1    
  7877 7870 7871 1    
  7878 7871 7879 1    
  7879 7871 7878 1    
  7880 7871 7880 1    
  7881 7881 7896 1    
  7882 7881 7887 1    
  7883 7882 7890 2    
  7884 7883 7884 1    
  7885 7883 7897 1    
  7886 7883 7890 am   BACKBONE|DICT|INTERRES
  7887 7884 7889 ar   
  7888 7884 7885 ar   
  7889 7885 7886 ar   
  7890 7885 7892 1    
  7891 7886 7887 ar   
  7892 7886 7893 1    
  7893 7887 7888 ar   
  7894 7888 7889 ar   
  7895 7888 7894 1    
  7896 7889 7895 1    
  7897 7890 7891 1    
  7898 7891 7898 1    
  7899 7891 7900 1    
  7900 7891 7899 1    
  7901 7901 7907 1    
  7902 7901 7916 1    
  7903 7902 7910 2    
  7904 7903 7910 am   BACKBONE|DICT|INTERRES
  7905 7903 7904 1    
  7906 7903 7917 1    
  7907 7904 7909 ar   
  7908 7904 7905 ar   
  7909 7905 7912 1    
  7910 7905 7906 ar   
  7911 7906 7913 1    
  7912 7906 7907 ar   
  7913 7907 7908 ar   
  7914 7908 7914 1    
  7915 7908 7909 ar   
  7916 7909 7915 1    
  7917 7910 7911 1    
  7918 7911 7918 1    
  7919 7911 7920 1    
  7920 7911 7919 1    
  7921 7921 7936 1    
  7922 7921 7927 1    
  7923 7922 7930 2    
  7924 7923 7937 1    
  7925 7923 7930 am   BACKBONE|DICT|INTERRES
  7926 7923 7924 1    
  7927 7924 7925 ar   
  7928 7924 7929 ar   
  7929 7925 7932 1    
  7930 7925 7926 ar   
  7931 7926 7927 ar   
  7932 7926 7933 1    
  7933 7927 7928 ar   
  7934 7928 7929 ar   
  7935 7928 7934 1    
  7936 7929 7935 1    
  7937 7930 7931 1    
  7938 7931 7939 1    
  7939 7931 7938 1    
  7940 7931 7940 1    
  7941 7941 7956 1    
  7942 7941 7947 1    
  7943 7942 7950 2    
  7944 7943 7944 1    
  7945 7943 7957 1    
  7946 7943 7950 am   BACKBONE|DICT|INTERRES
  7947 7944 7945 ar   
  7948 7944 7949 ar   
  7949 7945 7946 ar   
  7950 7945 7952 1    
  7951 7946 7953 1    
  7952 7946 7947 ar   
  7953 7947 7948 ar   
  7954 7948 7954 1    
  7955 7948 7949 ar   
  7956 7949 7955 1    
  7957 7950 7951 1    
  7958 7951 7959 1    
  7959 7951 7958 1    
  7960 7951 7960 1    
  7961 7961 7976 1    
  7962 7961 7967 1    
  7963 7962 7970 2    
  7964 7963 7964 1    
  7965 7963 7977 1    
  7966 7963 7970 am   BACKBONE|DICT|INTERRES
  7967 7964 7969 ar   
  7968 7964 7965 ar   
  7969 7965 7966 ar   
  7970 7965 7972 1    
  7971 7966 7967 ar   
  7972 7966 7973 1    
  7973 7967 7968 ar   
  7974 7968 7969 ar   
  7975 7968 7974 1    
  7976 7969 7975 1    
  7977 7970 7971 1    
  7978 7971 7978 1    
  7979 7971 7980 1    
  7980 7971 7979 1    
  7981 7981 7987 1    
  7982 7981 7996 1    
  7983 7982 7990 2    
  7984 7983 7990 am   BACKBONE|DICT|INTERRES
  7985 7983 7984 1    
  7986 7983 7997 1    
  7987 7984 7989 ar   
  7988 7984 7985 ar   
  7989 7985 7992 1    
  7990 7985 7986 ar   
  7991 7986 7993 1    
  7992 7986 7987 ar   
  7993 7987 7988 ar   
  7994 7988 7994 1    
  7995 7988 7989 ar   
  7996 7989 7995 1    
  7997 7990 7991 1    
  7998 7991 7998 1    
  7999 7991 8000 1    
  8000 7991 7999 1    
  8001 8001 8016 1    
  8002 8001 8007 1    
  8003 8002 8010 2    
  8004 8003 8017 1    
  8005 8003 8010 am   BACKBONE|DICT|INTERRES
  8006 8003 8004 1    
  8007 8004 8005 ar   
  8008 8004 8009 ar   
  8009 8005 8012 1    
  8010 8005 8006 ar   
  8011 8006 8007 ar   
  8012 8006 8013 1    
  8013 8007 8008 ar   
  8014 8008 8009 ar   
  8015 8008 8014 1    
  8016 8009 8015 1    
  8017 8010 8011 1    
  8018 8011 8019 1    
  8019 8011 8018 1    
  8020 8011 8020 1    
  8021 8021 8036 1    
  8022 8021 8027 1    
  8023 8022 8030 2    
  8024 8023 8024 1    
  8025 8023 8037 1    
  8026 8023 8030 am   BACKBONE|DICT|INTERRES
  8027 8024 8025 ar   
  8028 8024 8029 ar   
  8029 8025 8026 ar   
  8030 8025 8032 1    
  8031 8026 8033 1    
  8032 8026 8027 ar   
  8033 8027 8028 ar   
  8034 8028 8034 1    
  8035 8028 8029 ar   
  8036 8029 8035 1    
  8037 8030 8031 1    
  8038 8031 8039 1    
  8039 8031 8038 1    
  8040 8031 8040 1    
  8041 8041 8056 1    
  8042 8041 8047 1    
  8043 8042 8050 2    
  8044 8043 8044 1    
  8045 8043 8057 1    
  8046 8043 8050 am   BACKBONE|DICT|INTERRES
  8047 8044 8049 ar   
  8048 8044 8045 ar   
  8049 8045 8046 ar   
  8050 8045 8052 1    
  8051 8046 8047 ar   
  8052 8046 8053 1    
  8053 8047 8048 ar   
  8054 8048 8049 ar   
  8055 8048 8054 1    
  8056 8049 8055 1    
  8057 8050 8051 1    
  8058 8051 8058 1    
  8059 8051 8060 1    
  8060 8051 8059 1    
  8061 8061 8067 1    
  8062 8061 8076 1    
  8063 8062 8070 2    
  8064 8063 8070 am   BACKBONE|DICT|INTERRES
  8065 8063 8064 1    
  8066 8063 8077 1    
  8067 8064 8069 ar   
  8068 8064 8065 ar   
  8069 8065 8072 1    
  8070 8065 8066 ar   
  8071 8066 8073 1    
  8072 8066 8067 ar   
  8073 8067 8068 ar   
  8074 8068 8074 1    
  8075 8068 8069 ar   
  8076 8069 8075 1    
  8077 8070 8071 1    
  8078 8071 8078 1    
  8079 8071 8080 1    
  8080 8071 8079 1    
  8081 8081 8096 1    
  8082 8081 8087 1    
  8083 8082 8090 2    
  8084 8083 8097 1    
  8085 8083 8090 am   BACKBONE|DICT|INTERRES
  8086 8083 8084 1    
  8087 8084 8085 ar   
  8088 8084 8089 ar   
  8089 8085 8092 1    
  8090 8085 8086 ar   
  8091 8086 8087 ar   
  8092 8086 8093 1    
  8093 8087 8088 ar   
  8094 8088 8089 ar   
  8095 8088 8094 1    
  8096 8089 8095 1    
  8097 8090 8091 1    
  8098 8091 8099 1    
  8099 8091 8098 1    
  8100 8091 8100 1    
  8101 8101 8116 1    
  8102 8101 8107 1    
  8103 8102 8110 2    
  8104 8103 8104 1    
  8105 8103 8117 1    
  8106 8103 8110 am   BACKBONE|DICT|INTERRES
  8107 8104 8105 ar   
  8108 8104 8109 ar   
  8109 8105 8106 ar   
  8110 8105 8112 1    
  8111 8106 8113 1    
  8112 8106 8107 ar   
  8113 8107 8108 ar   
  8114 8108 8114 1    
  8115 8108 8109 ar   
  8116 8109 8115 1    
  8117 8110 8111 1    
  8118 8111 8119 1    
  8119 8111 8118 1    
  8120 8111 8120 1    
  8121 8121 8136 1    
  8122 8121 8127 1    
  8123 8122 8130 2    
  8124 8123 8124 1    
  8125 8123 8137 1    
  8126 8123 8130 am   BACKBONE|DICT|INTERRES
  8127 8124 8129 ar   
  8128 8124 8125 ar   
  8129 8125 8126 ar   
  8130 8125 8132 1    
  8131 8126 8127 ar   
  8132 8126 8133 1    
  8133 8127 8128 ar   
  8134 8128 8129 ar   
  8135 8128 8134 1    
  8136 8129 8135 1    
  8137 8130 8131 1    
  8138 8131 8138 1    
  8139 8131 8140 1    
  8140 8131 8139 1    
  8141 8141 8147 1    
  8142 8141 8156 1    
  8143 8142 8150 2    
  8144 8143 8150 am   BACKBONE|DICT|INTERRES
  8145 8143 8144 1    
  8146 8143 8157 1    
  8147 8144 8149 ar   
  8148 8144 8145 ar   
  8149 8145 8152 1    
  8150 8145 8146 ar   
  8151 8146 8153 1    
  8152 8146 8147 ar   
  8153 8147 8148 ar   
  8154 8148 8154 1    
  8155 8148 8149 ar   
  8156 8149 8155 1    
  8157 8150 8151 1    
  8158 8151 8158 1    
  8159 8151 8160 1    
  8160 8151 8159 1    
  8161 8161 8176 1    
  8162 8161 8167 1    
  8163 8162 8170 2    
  8164 8163 8177 1    
  8165 8163 8170 am   BACKBONE|DICT|INTERRES
  8166 8163 8164 1    
  8167 8164 8165 ar   
  8168 8164 8169 ar   
  8169 8165 8172 1    
  8170 8165 8166 ar   
  8171 8166 8167 ar   
  8172 8166 8173 1    
  8173 8167 8168 ar   
  8174 8168 8169 ar   
  8175 8168 8174 1    
  8176 8169 8175 1    
  8177 8170 8171 1    
  8178 8171 8179 1    
  8179 8171 8178 1    
  8180 8171 8180 1    
  8181 8181 8196 1    
  8182 8181 8187 1    
  8183 8182 8190 2    
  8184 8183 8184 1    
  8185 8183 8197 1    
  8186 8183 8190 am   BACKBONE|DICT|INTERRES
  8187 8184 8185 ar   
  8188 8184 8189 ar   
  8189 8185 8186 ar   
  8190 8185 8192 1    
  8191 8186 8193 1    
  8192 8186 8187 ar   
  8193 8187 8188 ar   
  8194 8188 8194 1    
  8195 8188 8189 ar   
  8196 8189 8195 1    
  8197 8190 8191 1    
  8198 8191 8199 1    
  8199 8191 8198 1    
  8200 8191 8200 1    
  8201 8201 8216 1    
  8202 8201 8207 1    
  8203 8202 8210 2    
  8204 8203 8204 1    
  8205 8203 8217 1    
  8206 8203 8210 am   BACKBONE|DICT|INTERRES
  8207 8204 8209 ar   
  8208 8204 8205 ar   
  8209 8205 8206 ar   
  8210 8205 8212 1    
  8211 8206 8207 ar   
  8212 8206 8213 1    
  8213 8207 8208 ar   
  8214 8208 8209 ar   
  8215 8208 8214 1    
  8216 8209 8215 1    
  8217 8210 8211 1    
  8218 8211 8218 1    
  8219 8211 8220 1    
  8220 8211 8219 1    
  8221 8221 8227 1    
  8222 8221 8236 1    
  8223 8222 8230 2    
  8224 8223 8230 am   BACKBONE|DICT|INTERRES
  8225 8223 8224 1    
  8226 8223 8237 1    
  8227 8224 8229 ar   
  8228 8224 8225 ar   
  8229 8225 8232 1    
  8230 8225 8226 ar   
  8231 8226 8233 1    
  8232 8226 8227 ar   
  8233 8227 8228 ar   
  8234 8228 8234 1    
  8235 8228 8229 ar   
  8236 8229 8235 1    
  8237 8230 8231 1    
  8238 8231 8238 1    
  8239 8231 8240 1    
  8240 8231 8239 1    
  8241 8241 8256 1    
  8242 8241 8247 1    
  8243 8242 8250 2    
  8244 8243 8257 1    
  8245 8243 8250 am   BACKBONE|DICT|INTERRES
  8246 8243 8244 1    
  8247 8244 8245 ar   
  8248 8244 8249 ar   
  8249 8245 8252 1    
  8250 8245 8246 ar   
  8251 8246 8247 ar   
  8252 8246 8253 1    
  8253 8247 8248 ar   
  8254 8248 8249 ar   
  8255 8248 8254 1    
  8256 8249 8255 1    
  8257 8250 8251 1    
  8258 8251 8259 1    
  8259 8251 8258 1    
  8260 8251 8260 1    
  8261 8261 8276 1    
  8262 8261 8267 1    
  8263 8262 8270 2    
  8264 8263 8264 1    
  8265 8263 8277 1    
  8266 8263 8270 am   BACKBONE|DICT|INTERRES
  8267 8264 8265 ar   
  8268 8264 8269 ar   
  8269 8265 8266 ar   
  8270 8265 8272 1    
  8271 8266 8273 1    
  8272 8266 8267 ar   
  8273 8267 8268 ar   
  8274 8268 8274 1    
  8275 8268 8269 ar   
  8276 8269 8275 1    
  8277 8270 8271 1    
  8278 8271 8279 1    
  8279 8271 8278 1    
  8280 8271 8280 1    
  8281 8281 8296 1    
  8282 8281 8287 1    
  8283 8282 8290 2    
  8284 8283 8284 1    
  8285 8283 8297 1    
  8286 8283 8290 am   BACKBONE|DICT|INTERRES
  8287 8284 8289 ar   
  8288 8284 8285 ar   
  8289 8285 8286 ar   
  8290 8285 8292 1    
  8291 8286 8287 ar   
  8292 8286 8293 1    
  8293 8287 8288 ar   
  8294 8288 8289 ar   
  8295 8288 8294 1    
  8296 8289 8295 1    
  8297 8290 8291 1    
  8298 8291 8298 1    
  8299 8291 8300 1    
  8300 8291 8299 1    
  8301 8301 8307 1    
  8302 8301 8316 1    
  8303 8302 8310 2    
  8304 8303 8310 am   BACKBONE|DICT|INTERRES
  8305 8303 8304 1    
  8306 8303 8317 1    
  8307 8304 8309 ar   
  8308 8304 8305 ar   
  8309 8305 8312 1    
  8310 8305 8306 ar   
  8311 8306 8313 1    
  8312 8306 8307 ar   
  8313 8307 8308 ar   
  8314 8308 8314 1    
  8315 8308 8309 ar   
  8316 8309 8315 1    
  8317 8310 8311 1    
  8318 8311 8318 1    
  8319 8311 8320 1    
  8320 8311 8319 1    
  8321 8321 8336 1    
  8322 8321 8327 1    
  8323 8322 8330 2    
  8324 8323 8337 1    
  8325 8323 8330 am   BACKBONE|DICT|INTERRES
  8326 8323 8324 1    
  8327 8324 8325 ar   
  8328 8324 8329 ar   
  8329 8325 8332 1    
  8330 8325 8326 ar   
  8331 8326 8327 ar   
  8332 8326 8333 1    
  8333 8327 8328 ar   
  8334 8328 8329 ar   
  8335 8328 8334 1    
  8336 8329 8335 1    
  8337 8330 8331 1    
  8338 8331 8339 1    
  8339 8331 8338 1    
  8340 8331 8340 1    
  8341 8341 8356 1    
  8342 8341 8347 1    
  8343 8342 8350 2    
  8344 8343 8344 1    
  8345 8343 8357 1    
  8346 8343 8350 am   BACKBONE|DICT|INTERRES
  8347 8344 8345 ar   
  8348 8344 8349 ar   
  8349 8345 8346 ar   
  8350 8345 8352 1    
  8351 8346 8353 1    
  8352 8346 8347 ar   
  8353 8347 8348 ar   
  8354 8348 8354 1    
  8355 8348 8349 ar   
  8356 8349 8355 1    
  8357 8350 8351 1    
  8358 8351 8359 1    
  8359 8351 8358 1    
  8360 8351 8360 1    
  8361 8361 8376 1    
  8362 8361 8367 1    
  8363 8362 8370 2    
  8364 8363 8364 1    
  8365 8363 8377 1    
  8366 8363 8370 am   BACKBONE|DICT|INTERRES
  8367 8364 8369 ar   
  8368 8364 8365 ar   
  8369 8365 8366 ar   
  8370 8365 8372 1    
  8371 8366 8367 ar   
  8372 8366 8373 1    
  8373 8367 8368 ar   
  8374 8368 8369 ar   
  8375 8368 8374 1    
  8376 8369 8375 1    
  8377 8370 8371 1    
  8378 8371 8378 1    
  8379 8371 8380 1    
  8380 8371 8379 1    
  8381 8381 8387 1    
  8382 8381 8396 1    
  8383 8382 8390 2    
  8384 8383 8390 am   BACKBONE|DICT|INTERRES
  8385 8383 8384 1    
  8386 8383 8397 1    
  8387 8384 8389 ar   
  8388 8384 8385 ar   
  8389 8385 8392 1    
  8390 8385 8386 ar   
  8391 8386 8393 1    
  8392 8386 8387 ar   
  8393 8387 8388 ar   
  8394 8388 8394 1    
  8395 8388 8389 ar   
  8396 8389 8395 1    
  8397 8390 8391 1    
  8398 8391 8398 1    
  8399 8391 8400 1    
  8400 8391 8399 1    
  8401 8401 8416 1    
  8402 8401 8407 1    
  8403 8402 8410 2    
  8404 8403 8417 1    
  8405 8403 8410 am   BACKBONE|DICT|INTERRES
  8406 8403 8404 1    
  8407 8404 8405 ar   
  8408 8404 8409 ar   
  8409 8405 8412 1    
  8410 8405 8406 ar   
  8411 8406 8407 ar   
  8412 8406 8413 1    
  8413 8407 8408 ar   
  8414 8408 8409 ar   
  8415 8408 8414 1    
  8416 8409 8415 1    
  8417 8410 8411 1    
  8418 8411 8419 1    
  8419 8411 8418 1    
  8420 8411 8420 1    
  8421 8421 8436 1    
  8422 8421 8427 1    
  8423 8422 8430 2    
  8424 8423 8424 1    
  8425 8423 8437 1    
  8426 8423 8430 am   BACKBONE|DICT|INTERRES
  8427 8424 8425 ar   
  8428 8424 8429 ar   
  8429 8425 8426 ar   
  8430 8425 8432 1    
  8431 8426 8433 1    
  8432 8426 8427 ar   
  8433 8427 8428 ar   
  8434 8428 8434 1    
  8435 8428 8429 ar   
  8436 8429 8435 1    
  8437 8430 8431 1    
  8438 8431 8439 1    
  8439 8431 8438 1    
  8440 8431 8440 1    
  8441 8441 8456 1    
  8442 8441 8447 1    
  8443 8442 8450 2    
  8444 8443 8444 1    
  8445 8443 8457 1    
  8446 8443 8450 am   BACKBONE|DICT|INTERRES
  8447 8444 8449 ar   
  8448 8444 8445 ar   
  8449 8445 8446 ar   
  8450 8445 8452 1    
  8451 8446 8447 ar   
  8452 8446 8453 1    
  8453 8447 8448 ar   
  8454 8448 8449 ar   
  8455 8448 8454 1    
  8456 8449 8455 1    
  8457 8450 8451 1    
  8458 8451 8458 1    
  8459 8451 8460 1    
  8460 8451 8459 1    
  8461 8461 8467 1    
  8462 8461 8476 1    
  8463 8462 8470 2    
  8464 8463 8470 am   BACKBONE|DICT|INTERRES
  8465 8463 8464 1    
  8466 8463 8477 1    
  8467 8464 8469 ar   
  8468 8464 8465 ar   
  8469 8465 8472 1    
  8470 8465 8466 ar   
  8471 8466 8473 1    
  8472 8466 8467 ar   
  8473 8467 8468 ar   
  8474 8468 8474 1    
  8475 8468 8469 ar   
  8476 8469 8475 1    
  8477 8470 8471 1    
  8478 8471 8478 1    
  8479 8471 8480 1    
  8480 8471 8479 1    
  8481 8481 8496 1    
  8482 8481 8487 1    
  8483 8482 8490 2    
  8484 8483 8497 1    
  8485 8483 8490 am   BACKBONE|DICT|INTERRES
  8486 8483 8484 1    
  8487 8484 8485 ar   
  8488 8484 8489 ar   
  8489 8485 8492 1    
  8490 8485 8486 ar   
  8491 8486 8487 ar   
  8492 8486 8493 1    
  8493 8487 8488 ar   
  8494 8488 8489 ar   
  8495 8488 8494 1    
  8496 8489 8495 1    
  8497 8490 8491 1    
  8498 8491 8499 1    
  8499 8491 8498 1    
  8500 8491 8500 1    
  8501 8501 8516 1    
  8502 8501 8507 1    
  8503 8502 8510 2    
  8504 8503 8504 1    
  8505 8503 8517 1    
  8506 8503 8510 am   BACKBONE|DICT|INTERRES
  8507 8504 8505 ar   
  8508 8504 8509 ar   
  8509 8505 8506 ar   
  8510 8505 8512 1    
  8511 8506 8513 1    
  8512 8506 8507 ar   
  8513 8507 8508 ar   
  8514 8508 8514 1    
  8515 8508 8509 ar   
  8516 8509 8515 1    
  8517 8510 8511 1    
  8518 8511 8519 1    
  8519 8511 8518 1    
  8520 8511 8520 1    
  8521 8521 8536 1    
  8522 8521 8527 1    
  8523 8522 8530 2    
  8524 8523 8524 1    
  8525 8523 8537 1    
  8526 8523 8530 am   BACKBONE|DICT|INTERRES
  8527 8524 8529 ar   
  8528 8524 8525 ar   
  8529 8525 8526 ar   
  8530 8525 8532 1    
  8531 8526 8527 ar   
  8532 8526 8533 1    
  8533 8527 8528 ar   
  8534 8528 8529 ar   
  8535 8528 8534 1    
  8536 8529 8535 1    
  8537 8530 8531 1    
  8538 8531 8538 1    
  8539 8531 8540 1    
  8540 8531 8539 1    
  8541 8541 8547 1    
  8542 8541 8556 1    
  8543 8542 8550 2    
  8544 8543 8550 am   BACKBONE|DICT|INTERRES
  8545 8543 8544 1    
  8546 8543 8557 1    
  8547 8544 8549 ar   
  8548 8544 8545 ar   
  8549 8545 8552 1    
  8550 8545 8546 ar   
  8551 8546 8553 1    
  8552 8546 8547 ar   
  8553 8547 8548 ar   
  8554 8548 8554 1    
  8555 8548 8549 ar   
  8556 8549 8555 1    
  8557 8550 8551 1    
  8558 8551 8558 1    
  8559 8551 8560 1    
  8560 8551 8559 1    
  8561 8561 8576 1    
  8562 8561 8567 1    
  8563 8562 8570 2    
  8564 8563 8577 1    
  8565 8563 8570 am   BACKBONE|DICT|INTERRES
  8566 8563 8564 1    
  8567 8564 8565 ar   
  8568 8564 8569 ar   
  8569 8565 8572 1    
  8570 8565 8566 ar   
  8571 8566 8567 ar   
  8572 8566 8573 1    
  8573 8567 8568 ar   
  8574 8568 8569 ar   
  8575 8568 8574 1    
  8576 8569 8575 1    
  8577 8570 8571 1    
  8578 8571 8579 1    
  8579 8571 8578 1    
  8580 8571 8580 1    
  8581 8581 8596 1    
  8582 8581 8587 1    
  8583 8582 8590 2    
  8584 8583 8584 1    
  8585 8583 8597 1    
  8586 8583 8590 am   BACKBONE|DICT|INTERRES
  8587 8584 8585 ar   
  8588 8584 8589 ar   
  8589 8585 8586 ar   
  8590 8585 8592 1    
  8591 8586 8593 1    
  8592 8586 8587 ar   
  8593 8587 8588 ar   
  8594 8588 8594 1    
  8595 8588 8589 ar   
  8596 8589 8595 1    
  8597 8590 8591 1    
  8598 8591 8599 1    
  8599 8591 8598 1    
  8600 8591 8600 1    
  8601 8601 8616 1    
  8602 8601 8607 1    
  8603 8602 8610 2    
  8604 8603 8604 1    
  8605 8603 8617 1    
  8606 8603 8610 am   BACKBONE|DICT|INTERRES
  8607 8604 8609 ar   
  8608 8604 8605 ar   
  8609 8605 8606 ar   
  8610 8605 8612 1    
  8611 8606 8607 ar   
  8612 8606 8613 1    
  8613 8607 8608 ar   
  8614 8608 8609 ar   
  8615 8608 8614 1    
  8616 8609 8615 1    
  8617 8610 8611 1    
  8618 8611 8618 1    
  8619 8611 8620 1    
  8620 8611 8619 1    
  8621 8621 8627 1    
  8622 8621 8636 1    
  8623 8622 8630 2    
  8624 8623 8630 am   BACKBONE|DICT|INTERRES
  8625 8623 8624 1    
  8626 8623 8637 1    
  8627 8624 8629 ar   
  8628 8624 8625 ar   
  8629 8625 8632 1    
  8630 8625 8626 ar   
  8631 8626 8633 1    
  8632 8626 8627 ar   
  8633 8627 8628 ar   
  8634 8628 8634 1    
  8635 8628 8629 ar   
  8636 8629 8635 1    
  8637 8630 8631 1    
  8638 8631 8638 1    
  8639 8631 8640 1    
  8640 8631 8639 1    
  8641 8641 8656 1    
  8642 8641 8647 1    
  8643 8642 8650 2    
  8644 8643 8657 1    
  8645 8643 8650 am   BACKBONE|DICT|INTERRES
  8646 8643 8644 1    
  8647 8644 8645 ar   
  8648 8644 8649 ar   
  8649 8645 8652 1    
  8650 8645 8646 ar   
  8651 8646 8647 ar   
  8652 8646 8653 1    
  8653 8647 8648 ar   
  8654 8648 8649 ar   
  8655 8648 8654 1    
  8656 8649 8655 1    
  8657 8650 8651 1    
  8658 8651 8659 1    
  8659 8651 8658 1    
  8660 8651 8660 1    
  8661 8661 8676 1    
  8662 8661 8667 1    
  8663 8662 8670 2    
  8664 8663 8664 1    
  8665 8663 8677 1    
  8666 8663 8670 am   BACKBONE|DICT|INTERRES
  8667 8664 8665 ar   
  8668 8664 8669 ar   
  8669 8665 8666 ar   
  8670 8665 8672 1    
  8671 8666 8673 1    
  8672 8666 8667 ar   
  8673 8667 8668 ar   
  8674 8668 8674 1    
  8675 8668 8669 ar   
  8676 8669 8675 1    
  8677 8670 8671 1    
  8678 8671 8679 1    
  8679 8671 8678 1    
  8680 8671 8680 1    
  8681 8681 8696 1    
  8682 8681 8687 1    
  8683 8682 8690 2    
  8684 8683 8684 1    
  8685 8683 8697 1    
  8686 8683 8690 am   BACKBONE|DICT|INTERRES
  8687 8684 8689 ar   
  8688 8684 8685 ar   
  8689 8685 8686 ar   
  8690 8685 8692 1    
  8691 8686 8687 ar   
  8692 8686 8693 1    
  8693 8687 8688 ar   
  8694 8688 8689 ar   
  8695 8688 8694 1    
  8696 8689 8695 1    
  8697 8690 8691 1    
  8698 8691 8698 1    
  8699 8691 8700 1    
  8700 8691 8699 1    
  8701 8701 8707 1    
  8702 8701 8716 1    
  8703 8702 8710 2    
  8704 8703 8710 am   BACKBONE|DICT|INTERRES
  8705 8703 8704 1    
  8706 8703 8717 1    
  8707 8704 8709 ar   
  8708 8704 8705 ar   
  8709 8705 8712 1    
  8710 8705 8706 ar   
  8711 8706 8713 1    
  8712 8706 8707 ar   
  8713 8707 8708 ar   
  8714 8708 8714 1    
  8715 8708 8709 ar   
  8716 8709 8715 1    
  8717 8710 8711 1    
  8718 8711 8718 1    
  8719 8711 8720 1    
  8720 8711 8719 1    
  8721 8721 8736 1    
  8722 8721 8727 1    
  8723 8722 8730 2    
  8724 8723 8737 1    
  8725 8723 8730 am   BACKBONE|DICT|INTERRES
  8726 8723 8724 1    
  8727 8724 8725 ar   
  8728 8724 8729 ar   
  8729 8725 8732 1    
  8730 8725 8726 ar   
  8731 8726 8727 ar   
  8732 8726 8733 1    
  8733 8727 8728 ar   
  8734 8728 8729 ar   
  8735 8728 8734 1    
  8736 8729 8735 1    
  8737 8730 8731 1    
  8738 8731 8739 1    
  8739 8731 8738 1    
  8740 8731 8740 1    
  8741 8741 8756 1    
  8742 8741 8747 1    
  8743 8742 8750 2    
  8744 8743 8744 1    
  8745 8743 8757 1    
  8746 8743 8750 am   BACKBONE|DICT|INTERRES
  8747 8744 8745 ar   
  8748 8744 8749 ar   
  8749 8745 8746 ar   
  8750 8745 8752 1    
  8751 8746 8753 1    
  8752 8746 8747 ar   
  8753 8747 8748 ar   
  8754 8748 8754 1    
  8755 8748 8749 ar   
  8756 8749 8755 1    
  8757 8750 8751 1    
  8758 8751 8759 1    
  8759 8751 8758 1    
  8760 8751 8760 1    
  8761 8761 8776 1    
  8762 8761 8767 1    
  8763 8762 8770 2    
  8764 8763 8764 1    
  8765 8763 8777 1    
  8766 8763 8770 am   BACKBONE|DICT|INTERRES
  8767 8764 8769 ar   
  8768 8764 8765 ar   
  8769 8765 8766 ar   
  8770 8765 8772 1    
  8771 8766 8767 ar   
  8772 8766 8773 1    
  8773 8767 8768 ar   
  8774 8768 8769 ar   
  8775 8768 8774 1    
  8776 8769 8775 1    
  8777 8770 8771 1    
  8778 8771 8778 1    
  8779 8771 8780 1    
  8780 8771 8779 1    
  8781 8781 8787 1    
  8782 8781 8796 1    
  8783 8782 8790 2    
  8784 8783 8790 am   BACKBONE|DICT|INTERRES
  8785 8783 8784 1    
  8786 8783 8797 1    
  8787 8784 8789 ar   
  8788 8784 8785 ar   
  8789 8785 8792 1    
  8790 8785 8786 ar   
  8791 8786 8793 1    
  8792 8786 8787 ar   
  8793 8787 8788 ar   
  8794 8788 8794 1    
  8795 8788 8789 ar   
  8796 8789 8795 1    
  8797 8790 8791 1    
  8798 8791 8798 1    
  8799 8791 8800 1    
  8800 8791 8799 1    
  8801 8801 8816 1    
  8802 8801 8807 1    
  8803 8802 8810 2    
  8804 8803 8817 1    
  8805 8803 8810 am   BACKBONE|DICT|INTERRES
  8806 8803 8804 1    
  8807 8804 8805 ar   
  8808 8804 8809 ar   
  8809 8805 8812 1    
  8810 8805 8806 ar   
  8811 8806 8807 ar   
  8812 8806 8813 1    
  8813 8807 8808 ar   
  8814 8808 8809 ar   
  8815 8808 8814 1    
  8816 8809 8815 1    
  8817 8810 8811 1    
  8818 8811 8819 1    
  8819 8811 8818 1    
  8820 8811 8820 1    
  8821 8821 8836 1    
  8822 8821 8827 1    
  8823 8822 8830 2    
  8824 8823 8824 1    
  8825 8823 8837 1    
  8826 8823 8830 am   BACKBONE|DICT|INTERRES
  8827 8824 8825 ar   
  8828 8824 8829 ar   
  8829 8825 8826 ar   
  8830 8825 8832 1    
  8831 8826 8833 1    
  8832 8826 8827 ar   
  8833 8827 8828 ar   
  8834 8828 8834 1    
  8835 8828 8829 ar   
  8836 8829 8835 1    
  8837 8830 8831 1    
  8838 8831 8839 1    
  8839 8831 8838 1    
  8840 8831 8840 1    
  8841 8841 8856 1    
  8842 8841 8847 1    
  8843 8842 8850 2    
  8844 8843 8844 1    
  8845 8843 8857 1    
  8846 8843 8850 am   BACKBONE|DICT|INTERRES
  8847 8844 8849 ar   
  8848 8844 8845 ar   
  8849 8845 8846 ar   
  8850 8845 8852 1    
  8851 8846 8847 ar   
  8852 8846 8853 1    
  8853 8847 8848 ar   
  8854 8848 8849 ar   
  8855 8848 8854 1    
  8856 8849 8855 1    
  8857 8850 8851 1    
  8858 8851 8858 1    
  8859 8851 8860 1    
  8860 8851 8859 1    
  8861 8861 8867 1    
  8862 8861 8876 1    
  8863 8862 8870 2    
  8864 8863 8870 am   BACKBONE|DICT|INTERRES
  8865 8863 8864 1    
  8866 8863 8877 1    
  8867 8864 8869 ar   
  8868 8864 8865 ar   
  8869 8865 8872 1    
  8870 8865 8866 ar   
  8871 8866 8873 1    
  8872 8866 8867 ar   
  8873 8867 8868 ar   
  8874 8868 8874 1    
  8875 8868 8869 ar   
  8876 8869 8875 1    
  8877 8870 8871 1    
  8878 8871 8878 1    
  8879 8871 8880 1    
  8880 8871 8879 1    
  8881 8881 8896 1    
  8882 8881 8887 1    
  8883 8882 8890 2    
  8884 8883 8897 1    
  8885 8883 8890 am   BACKBONE|DICT|INTERRES
  8886 8883 8884 1    
  8887 8884 8885 ar   
  8888 8884 8889 ar   
  8889 8885 8892 1    
  8890 8885 8886 ar   
  8891 8886 8887 ar   
  8892 8886 8893 1    
  8893 8887 8888 ar   
  8894 8888 8889 ar   
  8895 8888 8894 1    
  8896 8889 8895 1    
  8897 8890 8891 1    
  8898 8891 8899 1    
  8899 8891 8898 1    
  8900 8891 8900 1    
  8901 8901 8916 1    
  8902 8901 8907 1    
  8903 8902 8910 2    
  8904 8903 8904 1    
  8905 8903 8917 1    
  8906 8903 8910 am   BACKBONE|DICT|INTERRES
  8907 8904 8905 ar   
  8908 8904 8909 ar   
  8909 8905 8906 ar   
  8910 8905 8912 1    
  8911 8906 8913 1    
  8912 8906 8907 ar   
  8913 8907 8908 ar   
  8914 8908 8914 1    
  8915 8908 8909 ar   
  8916 8909 8915 1    
  8917 8910 8911 1    
  8918 8911 8919 1    
  8919 8911 8918 1    
  8920 8911 8920 1    
  8921 8921 8936 1    
  8922 8921 8927 1    
  8923 8922 8930 2    
  8924 8923 8924 1    
  8925 8923 8937 1    
  8926 8923 8930 am   BACKBONE|DICT|INTERRES
  8927 8924 8929 ar   
  8928 8924 8925 ar   
  8929 8925 8926 ar   
  8930 8925 8932 1    
  8931 8926 8927 ar   
  8932 8926 8933 1    
  8933 8927 8928 ar   
  8934 8928 8929 ar   
  8935 8928 8934 1    
  8936 8929 8935 1    
  8937 8930 8931 1    
  8938 8931 8938 1    
  8939 8931 8940 1    
  8940 8931 8939 1    
  8941 8941 8947 1    
  8942 8941 8956 1    
  8943 8942 8950 2    
  8944 8943 8950 am   BACKBONE|DICT|INTERRES
  8945 8943 8944 1    
  8946 8943 8957 1    
  8947 8944 8949 ar   
  8948 8944 8945 ar   
  8949 8945 8952 1    
  8950 8945 8946 ar   
  8951 8946 8953 1    
  8952 8946 8947 ar   
  8953 8947 8948 ar   
  8954 8948 8954 1    
  8955 8948 8949 ar   
  8956 8949 8955 1    
  8957 8950 8951 1    
  8958 8951 8958 1    
  8959 8951 8960 1    
  8960 8951 8959 1    
  8961 8961 8976 1    
  8962 8961 8967 1    
  8963 8962 8970 2    
  8964 8963 8977 1    
  8965 8963 8970 am   BACKBONE|DICT|INTERRES
  8966 8963 8964 1    
  8967 8964 8965 ar   
  8968 8964 8969 ar   
  8969 8965 8972 1    
  8970 8965 8966 ar   
  8971 8966 8967 ar   
  8972 8966 8973 1    
  8973 8967 8968 ar   
  8974 8968 8969 ar   
  8975 8968 8974 1    
  8976 8969 8975 1    
  8977 8970 8971 1    
  8978 8971 8979 1    
  8979 8971 8978 1    
  8980 8971 8980 1    
  8981 8981 8996 1    
  8982 8981 8987 1    
  8983 8982 8990 2    
  8984 8983 8984 1    
  8985 8983 8997 1    
  8986 8983 8990 am   BACKBONE|DICT|INTERRES
  8987 8984 8985 ar   
  8988 8984 8989 ar   
  8989 8985 8986 ar   
  8990 8985 8992 1    
  8991 8986 8993 1    
  8992 8986 8987 ar   
  8993 8987 8988 ar   
  8994 8988 8994 1    
  8995 8988 8989 ar   
  8996 8989 8995 1    
  8997 8990 8991 1    
  8998 8991 8999 1    
  8999 8991 8998 1    
  9000 8991 9000 1    
  9001 9001 9016 1    
  9002 9001 9007 1    
  9003 9002 9010 2    
  9004 9003 9004 1    
  9005 9003 9017 1    
  9006 9003 9010 am   BACKBONE|DICT|INTERRES
  9007 9004 9009 ar   
  9008 9004 9005 ar   
  9009 9005 9006 ar   
  9010 9005 9012 1    
  9011 9006 9007 ar   
  9012 9006 9013 1    
  9013 9007 9008 ar   
  9014 9008 9009 ar   
  9015 9008 9014 1    
  9016 9009 9015 1    
  9017 9010 9011 1    
  9018 9011 9018 1    
  9019 9011 9020 1    
  9020 9011 9019 1    
  9021 9021 9027 1    
  9022 9021 9036 1    
  9023 9022 9030 2    
  9024 9023 9030 am   BACKBONE|DICT|INTERRES
  9025 9023 9024 1    
  9026 9023 9037 1    
  9027 9024 9029 ar   
  9028 9024 9025 ar   
  9029 9025 9032 1    
  9030 9025 9026 ar   
  9031 9026 9033 1    
  9032 9026 9027 ar   
  9033 9027 9028 ar   
  9034 9028 9034 1    
  9035 9028 9029 ar   
  9036 9029 9035 1    
  9037 9030 9031 1    
  9038 9031 9038 1    
  9039 9031 9040 1    
  9040 9031 9039 1    
  9041 9041 9056 1    
  9042 9041 9047 1    
  9043 9042 9050 2    
  9044 9043 9057 1    
  9045 9043 9050 am   BACKBONE|DICT|INTERRES
  9046 9043 9044 1    
  9047 9044 9045 ar   
  9048 9044 9049 ar   
  9049 9045 9052 1    
  9050 9045 9046 ar   
  9051 9046 9047 ar   
  9052 9046 9053 1    
  9053 9047 9048 ar   
  9054 9048 9049 ar   
  9055 9048 9054 1    
  9056 9049 9055 1    
  9057 9050 9051 1    
  9058 9051 9059 1    
  9059 9051 9058 1    
  9060 9051 9060 1    
  9061 9061 9076 1    
  9062 9061 9067 1    
  9063 9062 9070 2    
  9064 9063 9064 1    
  9065 9063 9077 1    
  9066 9063 9070 am   BACKBONE|DICT|INTERRES
  9067 9064 9065 ar   
  9068 9064 9069 ar   
  9069 9065 9066 ar   
  9070 9065 9072 1    
  9071 9066 9073 1    
  9072 9066 9067 ar   
  9073 9067 9068 ar   
  9074 9068 9074 1    
  9075 9068 9069 ar   
  9076 9069 9075 1    
  9077 9070 9071 1    
  9078 9071 9079 1    
  9079 9071 9078 1    
  9080 9071 9080 1    
  9081 9081 9096 1    
  9082 9081 9087 1    
  9083 9082 9090 2    
  9084 9083 9084 1    
  9085 9083 9097 1    
  9086 9083 9090 am   BACKBONE|DICT|INTERRES
  9087 9084 9089 ar   
  9088 9084 9085 ar   
  9089 9085 9086 ar   
  9090 9085 9092 1    
  9091 9086 9087 ar   
  9092 9086 9093 1    
  9093 9087 9088 ar   
  9094 9088 9089 ar   
  9095 9088 9094 1    
  9096 9089 9095 1    
  9097 9090 9091 1    
  9098 9091 9098 1    
  9099 9091 9100 1    
  9100 9091 9099 1    
  9101 9101 9107 1    
  9102 9101 9116 1    
  9103 9102 9110 2    
  9104 9103 9110 am   BACKBONE|DICT|INTERRES
  9105 9103 9104 1    
  9106 9103 9117 1    
  9107 9104 9109 ar   
  9108 9104 9105 ar   
  9109 9105 9112 1    
  9110 9105 9106 ar   
  9111 9106 9113 1    
  9112 9106 9107 ar   
  9113 9107 9108 ar   
  9114 9108 9114 1    
  9115 9108 9109 ar   
  9116 9109 9115 1    
  9117 9110 9111 1    
  9118 9111 9118 1    
  9119 9111 9120 1    
  9120 9111 9119 1    
  9121 9121 9136 1    
  9122 9121 9127 1    
  9123 9122 9130 2    
  9124 9123 9137 1    
  9125 9123 9130 am   BACKBONE|DICT|INTERRES
  9126 9123 9124 1    
  9127 9124 9125 ar   
  9128 9124 9129 ar   
  9129 9125 9132 1    
  9130 9125 9126 ar   
  9131 9126 9127 ar   
  9132 9126 9133 1    
  9133 9127 9128 ar   
  9134 9128 9129 ar   
  9135 9128 9134 1    
  9136 9129 9135 1    
  9137 9130 9131 1    
  9138 9131 9139 1    
  9139 9131 9138 1    
  9140 9131 9140 1    
  9141 9141 9156 1    
  9142 9141 9147 1    
  9143 9142 9150 2    
  9144 9143 9144 1    
  9145 9143 9157 1    
  9146 9143 9150 am   BACKBONE|DICT|INTERRES
  9147 9144 9145 ar   
  9148 9144 9149 ar   
  9149 9145 9146 ar   
  9150 9145 9152 1    
  9151 9146 9153 1    
  9152 9146 9147 ar   
  9153 9147 9148 ar   
  9154 9148 9154 1    
  9155 9148 9149 ar   
  9156 9149 9155 1    
  9157 9150 9151 1    
  9158 9151 9159 1    
  9159 9151 9158 1    
  9160 9151 9160 1    
  9161 9161 9176 1    
  9162 9161 9167 1    
  9163 9162 9170 2    
  9164 9163 9164 1    
  9165 9163 9177 1    
  9166 9163 9170 am   BACKBONE|DICT|INTERRES
  9167 9164 9169 ar   
  9168 9164 9165 ar   
  9169 9165 9166 ar   
  9170 9165 9172 1    
  9171 9166 9167 ar   
  9172 9166 9173 1    
  9173 9167 9168 ar   
  9174 9168 9169 ar   
  9175 9168 9174 1    
  9176 9169 9175 1    
  9177 9170 9171 1    
  9178 9171 9178 1    
  9179 9171 9180 1    
  9180 9171 9179 1    
  9181 9181 9187 1    
  9182 9181 9196 1    
  9183 9182 9190 2    
  9184 9183 9190 am   BACKBONE|DICT|INTERRES
  9185 9183 9184 1    
  9186 9183 9197 1    
  9187 9184 9189 ar   
  9188 9184 9185 ar   
  9189 9185 9192 1    
  9190 9185 9186 ar   
  9191 9186 9193 1    
  9192 9186 9187 ar   
  9193 9187 9188 ar   
  9194 9188 9194 1    
  9195 9188 9189 ar   
  9196 9189 9195 1    
  9197 9190 9191 1    
  9198 9191 9198 1    
  9199 9191 9200 1    
  9200 9191 9199 1    
  9201 9201 9216 1    
  9202 9201 9207 1    
  9203 9202 9210 2    
  9204 9203 9217 1    
  9205 9203 9210 am   BACKBONE|DICT|INTERRES
  9206 9203 9204 1    
  9207 9204 9205 ar   
  9208 9204 9209 ar   
  9209 9205 9212 1    
  9210 9205 9206 ar   
  9211 9206 9207 ar   
  9212 9206 9213 1    
  9213 9207 9208 ar   
  9214 9208 9209 ar   
  9215 9208 9214 1    
  9216 9209 9215 1    
  9217 9210 9211 1    
  9218 9211 9219 1    
  9219 9211 9218 1    
  9220 9211 9220 1    
  9221 9221 9236 1    
  9222 9221 9227 1    
  9223 9222 9230 2    
  9224 9223 9224 1    
  9225 9223 9237 1    
  9226 9223 9230 am   BACKBONE|DICT|INTERRES
  9227 9224 9225 ar   
  9228 9224 9229 ar   
  9229 9225 9226 ar   
  9230 9225 9232 1    
  9231 9226 9233 1    
  9232 9226 9227 ar   
  9233 9227 9228 ar   
  9234 9228 9234 1    
  9235 9228 9229 ar   
  9236 9229 9235 1    
  9237 9230 9231 1    
  9238 9231 9239 1    
  9239 9231 9238 1    
  9240 9231 9240 1    
  9241 9241 9256 1    
  9242 9241 9247 1    
  9243 9242 9250 2    
  9244 9243 9244 1    
  9245 9243 9257 1    
  9246 9243 9250 am   BACKBONE|DICT|INTERRES
  9247 9244 9249 ar   
  9248 9244 9245 ar   
  9249 9245 9246 ar   
  9250 9245 9252 1    
  9251 9246 9247 ar   
  9252 9246 9253 1    
  9253 9247 9248 ar   
  9254 9248 9249 ar   
  9255 9248 9254 1    
  9256 9249 9255 1    
  9257 9250 9251 1    
  9258 9251 9258 1    
  9259 9251 9260 1    
  9260 9251 9259 1    
  9261 9261 9267 1    
  9262 9261 9276 1    
  9263 9262 9270 2    
  9264 9263 9270 am   BACKBONE|DICT|INTERRES
  9265 9263 9264 1    
  9266 9263 9277 1    
  9267 9264 9269 ar   
  9268 9264 9265 ar   
  9269 9265 9272 1    
  9270 9265 9266 ar   
  9271 9266 9273 1    
  9272 9266 9267 ar   
  9273 9267 9268 ar   
  9274 9268 9274 1    
  9275 9268 9269 ar   
  9276 9269 9275 1    
  9277 9270 9271 1    
  9278 9271 9278 1    
  9279 9271 9280 1    
  9280 9271 9279 1    
  9281 9281 9296 1    
  9282 9281 9287 1    
  9283 9282 9290 2    
  9284 9283 9297 1    
  9285 9283 9290 am   BACKBONE|DICT|INTERRES
  9286 9283 9284 1    
  9287 9284 9285 ar   
  9288 9284 9289 ar   
  9289 9285 9292 1    
  9290 9285 9286 ar   
  9291 9286 9287 ar   
  9292 9286 9293 1    
  9293 9287 9288 ar   
  9294 9288 9289 ar   
  9295 9288 9294 1    
  9296 9289 9295 1    
  9297 9290 9291 1    
  9298 9291 9299 1    
  9299 9291 9298 1    
  9300 9291 9300 1    
  9301 9301 9316 1    
  9302 9301 9307 1    
  9303 9302 9310 2    
  9304 9303 9304 1    
  9305 9303 9317 1    
  9306 9303 9310 am   BACKBONE|DICT|INTERRES
  9307 9304 9305 ar   
  9308 9304 9309 ar   
  9309 9305 9306 ar   
  9310 9305 9312 1    
  9311 9306 9313 1    
  9312 9306 9307 ar   
  9313 9307 9308 ar   
  9314 9308 9314 1    
  9315 9308 9309 ar   
  9316 9309 9315 1    
  9317 9310 9311 1    
  9318 9311 9319 1    
  9319 9311 9318 1    
  9320 9311 9320 1    
  9321 9321 9336 1    
  9322 9321 9327 1    
  9323 9322 9330 2    
  9324 9323 9324 1    
  9325 9323 9337 1    
  9326 9323 9330 am   BACKBONE|DICT|INTERRES
  9327 9324 9329 ar   
  9328 9324 9325 ar   
  9329 9325 9326 ar   
  9330 9325 9332 1    
  9331 9326 9327 ar   
  9332 9326 9333 1    
  9333 9327 9328 ar   
  9334 9328 9329 ar   
  9335 9328 9334 1    
  9336 9329 9335 1    
  9337 9330 9331 1    
  9338 9331 9338 1    
  9339 9331 9340 1    
  9340 9331 9339 1    
  9341 9341 9347 1    
  9342 9341 9356 1    
  9343 9342 9350 2    
  9344 9343 9350 am   BACKBONE|DICT|INTERRES
  9345 9343 9344 1    
  9346 9343 9357 1    
  9347 9344 9349 ar   
  9348 9344 9345 ar   
  9349 9345 9352 1    
  9350 9345 9346 ar   
  9351 9346 9353 1    
  9352 9346 9347 ar   
  9353 9347 9348 ar   
  9354 9348 9354 1    
  9355 9348 9349 ar   
  9356 9349 9355 1    
  9357 9350 9351 1    
  9358 9351 9358 1    
  9359 9351 9360 1    
  9360 9351 9359 1    
  9361 9361 9376 1    
  9362 9361 9367 1    
  9363 9362 9370 2    
  9364 9363 9377 1    
  9365 9363 9370 am   BACKBONE|DICT|INTERRES
  9366 9363 9364 1    
  9367 9364 9365 ar   
  9368 9364 9369 ar   
  9369 9365 9372 1    
  9370 9365 9366 ar   
  9371 9366 9367 ar   
  9372 9366 9373 1    
  9373 9367 9368 ar   
  9374 9368 9369 ar   
  9375 9368 9374 1    
  9376 9369 9375 1    
  9377 9370 9371 1    
  9378 9371 9379 1    
  9379 9371 9378 1    
  9380 9371 9380 1    
  9381 9381 9396 1    
  9382 9381 9387 1    
  9383 9382 9390 2    
  9384 9383 9384 1    
  9385 9383 9397 1    
  9386 9383 9390 am   BACKBONE|DICT|INTERRES
  9387 9384 9385 ar   
  9388 9384 9389 ar   
  9389 9385 9386 ar   
  9390 9385 9392 1    
  9391 9386 9393 1    
  9392 9386 9387 ar   
  9393 9387 9388 ar   
  9394 9388 9394 1    
  9395 9388 9389 ar   
  9396 9389 9395 1    
  9397 9390 9391 1    
  9398 9391 9399 1    
  9399 9391 9398 1    
  9400 9391 9400 1    
  9401 9401 9416 1    
  9402 9401 9407 1    
  9403 9402 9410 2    
  9404 9403 9404 1    
  9405 9403 9417 1    
  9406 9403 9410 am   BACKBONE|DICT|INTERRES
  9407 9404 9409 ar   
  9408 9404 9405 ar   
  9409 9405 9406 ar   
  9410 9405 9412 1    
  9411 9406 9407 ar   
  9412 9406 9413 1    
  9413 9407 9408 ar   
  9414 9408 9409 ar   
  9415 9408 9414 1    
  9416 9409 9415 1    
  9417 9410 9411 1    
  9418 9411 9418 1    
  9419 9411 9420 1    
  9420 9411 9419 1    
  9421 9421 9427 1    
  9422 9421 9436 1    
  9423 9422 9430 2    
  9424 9423 9430 am   BACKBONE|DICT|INTERRES
  9425 9423 9424 1    
  9426 9423 9437 1    
  9427 9424 9429 ar   
  9428 9424 9425 ar   
  9429 9425 9432 1    
  9430 9425 9426 ar   
  9431 9426 9433 1    
  9432 9426 9427 ar   
  9433 9427 9428 ar   
  9434 9428 9434 1    
  9435 9428 9429 ar   
  9436 9429 9435 1    
  9437 9430 9431 1    
  9438 9431 9438 1    
  9439 9431 9440 1    
  9440 9431 9439 1    
  9441 9441 9456 1    
  9442 9441 9447 1    
  9443 9442 9450 2    
  9444 9443 9457 1    
  9445 9443 9450 am   BACKBONE|DICT|INTERRES
  9446 9443 9444 1    
  9447 9444 9445 ar   
  9448 9444 9449 ar   
  9449 9445 9452 1    
  9450 9445 9446 ar   
  9451 9446 9447 ar   
  9452 9446 9453 1    
  9453 9447 9448 ar   
  9454 9448 9449 ar   
  9455 9448 9454 1    
  9456 9449 9455 1    
  9457 9450 9451 1    
  9458 9451 9459 1    
  9459 9451 9458 1    
  9460 9451 9460 1    
  9461 9461 9476 1    
  9462 9461 9467 1    
  9463 9462 9470 2    
  9464 9463 9464 1    
  9465 9463 9477 1    
  9466 9463 9470 am   BACKBONE|DICT|INTERRES
  9467 9464 9465 ar   
  9468 9464 9469 ar   
  9469 9465 9466 ar   
  9470 9465 9472 1    
  9471 9466 9473 1    
  9472 9466 9467 ar   
  9473 9467 9468 ar   
  9474 9468 9474 1    
  9475 9468 9469 ar   
  9476 9469 9475 1    
  9477 9470 9471 1    
  9478 9471 9479 1    
  9479 9471 9478 1    
  9480 9471 9480 1    
  9481 9481 9496 1    
  9482 9481 9487 1    
  9483 9482 9490 2    
  9484 9483 9484 1    
  9485 9483 9497 1    
  9486 9483 9490 am   BACKBONE|DICT|INTERRES
  9487 9484 9489 ar   
  9488 9484 9485 ar   
  9489 9485 9486 ar   
  9490 9485 9492 1    
  9491 9486 9487 ar   
  9492 9486 9493 1    
  9493 9487 9488 ar   
  9494 9488 9489 ar   
  9495 9488 9494 1    
  9496 9489 9495 1    
  9497 9490 9491 1    
  9498 9491 9498 1    
  9499 9491 9500 1    
  9500 9491 9499 1    
  9501 9501 9507 1    
  9502 9501 9516 1    
  9503 9502 9510 2    
  9504 9503 9510 am   BACKBONE|DICT|INTERRES
  9505 9503 9504 1    
  9506 9503 9517 1    
  9507 9504 9509 ar   
  9508 9504 9505 ar   
  9509 9505 9512 1    
  9510 9505 9506 ar   
  9511 9506 9513 1    
  9512 9506 9507 ar   
  9513 9507 9508 ar   
  9514 9508 9514 1    
  9515 9508 9509 ar   
  9516 9509 9515 1    
  9517 9510 9511 1    
  9518 9511 9518 1    
  9519 9511 9520 1    
  9520 9511 9519 1    
  9521 9521 9536 1    
  9522 9521 9527 1    
  9523 9522 9530 2    
  9524 9523 9537 1    
  9525 9523 9530 am   BACKBONE|DICT|INTERRES
  9526 9523 9524 1    
  9527 9524 9525 ar   
  9528 9524 9529 ar   
  9529 9525 9532 1    
  9530 9525 9526 ar   
  9531 9526 9527 ar   
  9532 9526 9533 1    
  9533 9527 9528 ar   
  9534 9528 9529 ar   
  9535 9528 9534 1    
  9536 9529 9535 1    
  9537 9530 9531 1    
  9538 9531 9539 1    
  9539 9531 9538 1    
  9540 9531 9540 1    
  9541 9541 9556 1    
  9542 9541 9547 1    
  9543 9542 9550 2    
  9544 9543 9544 1    
  9545 9543 9557 1    
  9546 9543 9550 am   BACKBONE|DICT|INTERRES
  9547 9544 9545 ar   
  9548 9544 9549 ar   
  9549 9545 9546 ar   
  9550 9545 9552 1    
  9551 9546 9553 1    
  9552 9546 9547 ar   
  9553 9547 9548 ar   
  9554 9548 9554 1    
  9555 9548 9549 ar   
  9556 9549 9555 1    
  9557 9550 9551 1    
  9558 9551 9559 1    
  9559 9551 9558 1    
  9560 9551 9560 1    
  9561 9561 9576 1    
  9562 9561 9567 1    
  9563 9562 9570 2    
  9564 9563 9564 1    
  9565 9563 9577 1    
  9566 9563 9570 am   BACKBONE|DICT|INTERRES
  9567 9564 9569 ar   
  9568 9564 9565 ar   
  9569 9565 9566 ar   
  9570 9565 9572 1    
  9571 9566 9567 ar   
  9572 9566 9573 1    
  9573 9567 9568 ar   
  9574 9568 9569 ar   
  9575 9568 9574 1    
  9576 9569 9575 1    
  9577 9570 9571 1    
  9578 9571 9578 1    
  9579 9571 9580 1    
  9580 9571 9579 1    
  9581 9581 9587 1    
  9582 9581 9596 1    
  9583 9582 9590 2    
  9584 9583 9590 am   BACKBONE|DICT|INTERRES
  9585 9583 9584 1    
  9586 9583 9597 1    
  9587 9584 9589 ar   
  9588 9584 9585 ar   
  9589 9585 9592 1    
  9590 9585 9586 ar   
  9591 9586 9593 1    
  9592 9586 9587 ar   
  9593 9587 9588 ar   
  9594 9588 9594 1    
  9595 9588 9589 ar   
  9596 9589 9595 1    
  9597 9590 9591 1    
  9598 9591 9598 1    
  9599 9591 9600 1    
  9600 9591 9599 1    
  9601 9601 9616 1    
  9602 9601 9607 1    
  9603 9602 9610 2    
  9604 9603 9617 1    
  9605 9603 9610 am   BACKBONE|DICT|INTERRES
  9606 9603 9604 1    
  9607 9604 9605 ar   
  9608 9604 9609 ar   
  9609 9605 9612 1    
  9610 9605 9606 ar   
  9611 9606 9607 ar   
  9612 9606 9613 1    
  9613 9607 9608 ar   
  9614 9608 9609 ar   
  9615 9608 9614 1    
  9616 9609 9615 1    
  9617 9610 9611 1    
  9618 9611 9619 1    
  9619 9611 9618 1    
  9620 9611 9620 1    
  9621 9621 9636 1    
  9622 9621 9627 1    
  9623 9622 9630 2    
  9624 9623 9624 1    
  9625 9623 9637 1    
  9626 9623 9630 am   BACKBONE|DICT|INTERRES
  9627 9624 9625 ar   
  9628 9624 9629 ar   
  9629 9625 9626 ar   
  9630 9625 9632 1    
  9631 9626 9633 1    
  9632 9626 9627 ar   
  9633 9627 9628 ar   
  9634 9628 9634 1    
  9635 9628 9629 ar   
  9636 9629 9635 1    
  9637 9630 9631 1    
  9638 9631 9639 1    
  9639 9631 9638 1    
  9640 9631 9640 1    
  9641 9641 9656 1    
  9642 9641 9647 1    
  9643 9642 9650 2    
  9644 9643 9644 1    
  9645 9643 9657 1    
  9646 9643 9650 am   BACKBONE|DICT|INTERRES
  9647 9644 9649 ar   
  9648 9644 9645 ar   
  9649 9645 9646 ar   
  9650 9645 9652 1    
  9651 9646 9647 ar   
  9652 9646 9653 1    
  9653 9647 9648 ar   
  9654 9648 9649 ar   
  9655 9648 9654 1    
  9656 9649 9655 1    
  9657 9650 9651 1    
  9658 9651 9658 1    
  9659 9651 9660 1    
  9660 9651 9659 1    
  9661 9661 9667 1    
  9662 9661 9676 1    
  9663 9662 9670 2    
  9664 9663 9670 am   BACKBONE|DICT|INTERRES
  9665 9663 9664 1    
  9666 9663 9677 1    
  9667 9664 9669 ar   
  9668 9664 9665 ar   
  9669 9665 9672 1    
  9670 9665 9666 ar   
  9671 9666 9673 1    
  9672 9666 9667 ar   
  9673 9667 9668 ar   
  9674 9668 9674 1    
  9675 9668 9669 ar   
  9676 9669 9675 1    
  9677 9670 9671 1    
  9678 9671 9678 1    
  9679 9671 9680 1    
  9680 9671 9679 1    
  9681 9681 9696 1    
  9682 9681 9687 1    
  9683 9682 9690 2    
  9684 9683 9697 1    
  9685 9683 9690 am   BACKBONE|DICT|INTERRES
  9686 9683 9684 1    
  9687 9684 9685 ar   
  9688 9684 9689 ar   
  9689 9685 9692 1    
  9690 9685 9686 ar   
  9691 9686 9687 ar   
  9692 9686 9693 1    
  9693 9687 9688 ar   
  9694 9688 9689 ar   
  9695 9688 9694 1    
  9696 9689 9695 1    
  9697 9690 9691 1    
  9698 9691 9699 1    
  9699 9691 9698 1    
  9700 9691 9700 1    
  9701 9701 9716 1    
  9702 9701 9707 1    
  9703 9702 9710 2    
  9704 9703 9704 1    
  9705 9703 9717 1    
  9706 9703 9710 am   BACKBONE|DICT|INTERRES
  9707 9704 9705 ar   
  9708 9704 9709 ar   
  9709 9705 9706 ar   
  9710 9705 9712 1    
  9711 9706 9713 1    
  9712 9706 9707 ar   
  9713 9707 9708 ar   
  9714 9708 9714 1    
  9715 9708 9709 ar   
  9716 9709 9715 1    
  9717 9710 9711 1    
  9718 9711 9719 1    
  9719 9711 9718 1    
  9720 9711 9720 1    
  9721 9721 9736 1    
  9722 9721 9727 1    
  9723 9722 9730 2    
  9724 9723 9724 1    
  9725 9723 9737 1    
  9726 9723 9730 am   BACKBONE|DICT|INTERRES
  9727 9724 9729 ar   
  9728 9724 9725 ar   
  9729 9725 9726 ar   
  9730 9725 9732 1    
  9731 9726 9727 ar   
  9732 9726 9733 1    
  9733 9727 9728 ar   
  9734 9728 9729 ar   
  9735 9728 9734 1    
  9736 9729 9735 1    
  9737 9730 9731 1    
  9738 9731 9738 1    
  9739 9731 9740 1    
  9740 9731 9739 1    
  9741 9741 9747 1    
  9742 9741 9756 1    
  9743 9742 9750 2    
  9744 9743 9750 am   BACKBONE|DICT|INTERRES
  9745 9743 9744 1    
  9746 9743 9757 1    
  9747 9744 9749 ar   
  9748 9744 9745 ar   
  9749 9745 9752 1    
  9750 9745 9746 ar   
  9751 9746 9753 1    
  9752 9746 9747 ar   
  9753 9747 9748 ar   
  9754 9748 9754 1    
  9755 9748 9749 ar   
  9756 9749 9755 1    
  9757 9750 9751 1    
  9758 9751 9758 1    
  9759 9751 9760 1    
  9760 9751 9759 1    
  9761 9761 9776 1    
  9762 9761 9767 1    
  9763 9762 9770 2    
  9764 9763 9777 1    
  9765 9763 9770 am   BACKBONE|DICT|INTERRES
  9766 9763 9764 1    
  9767 9764 9765 ar   
  9768 9764 9769 ar   
  9769 9765 9772 1    
  9770 9765 9766 ar   
  9771 9766 9767 ar   
  9772 9766 9773 1    
  9773 9767 9768 ar   
  9774 9768 9769 ar   
  9775 9768 9774 1    
  9776 9769 9775 1    
  9777 9770 9771 1    
  9778 9771 9779 1    
  9779 9771 9778 1    
  9780 9771 9780 1    
  9781 9781 9796 1    
  9782 9781 9787 1    
  9783 9782 9790 2    
  9784 9783 9784 1    
  9785 9783 9797 1    
  9786 9783 9790 am   BACKBONE|DICT|INTERRES
  9787 9784 9785 ar   
  9788 9784 9789 ar   
  9789 9785 9786 ar   
  9790 9785 9792 1    
  9791 9786 9793 1    
  9792 9786 9787 ar   
  9793 9787 9788 ar   
  9794 9788 9794 1    
  9795 9788 9789 ar   
  9796 9789 9795 1    
  9797 9790 9791 1    
  9798 9791 9799 1    
  9799 9791 9798 1    
  9800 9791 9800 1    
  9801 9801 9816 1    
  9802 9801 9807 1    
  9803 9802 9810 2    
  9804 9803 9804 1    
  9805 9803 9817 1    
  9806 9803 9810 am   BACKBONE|DICT|INTERRES
  9807 9804 9809 ar   
  9808 9804 9805 ar   
  9809 9805 9806 ar   
  9810 9805 9812 1    
  9811 9806 9807 ar   
  9812 9806 9813 1    
  9813 9807 9808 ar   
  9814 9808 9809 ar   
  9815 9808 9814 1    
  9816 9809 9815 1    
  9817 9810 9811 1    
  9818 9811 9818 1    
  9819 9811 9820 1    
  9820 9811 9819 1    
  9821 9821 9827 1    
  9822 9821 9836 1    
  9823 9822 9830 2    
  9824 9823 9830 am   BACKBONE|DICT|INTERRES
  9825 9823 9824 1    
  9826 9823 9837 1    
  9827 9824 9829 ar   
  9828 9824 9825 ar   
  9829 9825 9832 1    
  9830 9825 9826 ar   
  9831 9826 9833 1    
  9832 9826 9827 ar   
  9833 9827 9828 ar   
  9834 9828 9834 1    
  9835 9828 9829 ar   
  9836 9829 9835 1    
  9837 9830 9831 1    
  9838 9831 9838 1    
  9839 9831 9840 1    
  9840 9831 9839 1    
  9841 9841 9856 1    
  9842 9841 9847 1    
  9843 9842 9850 2    
  9844 9843 9857 1    
  9845 9843 9850 am   BACKBONE|DICT|INTERRES
  9846 9843 9844 1    
  9847 9844 9845 ar   
  9848 9844 9849 ar   
  9849 9845 9852 1    
  9850 9845 9846 ar   
  9851 9846 9847 ar   
  9852 9846 9853 1    
  9853 9847 9848 ar   
  9854 9848 9849 ar   
  9855 9848 9854 1    
  9856 9849 9855 1    
  9857 9850 9851 1    
  9858 9851 9859 1    
  9859 9851 9858 1    
  9860 9851 9860 1    
  9861 9861 9876 1    
  9862 9861 9867 1    
  9863 9862 9870 2    
  9864 9863 9864 1    
  9865 9863 9877 1    
  9866 9863 9870 am   BACKBONE|DICT|INTERRES
  9867 9864 9865 ar   
  9868 9864 9869 ar   
  9869 9865 9866 ar   
  9870 9865 9872 1    
  9871 9866 9873 1    
  9872 9866 9867 ar   
  9873 9867 9868 ar   
  9874 9868 9874 1    
  9875 9868 9869 ar   
  9876 9869 9875 1    
  9877 9870 9871 1    
  9878 9871 9879 1    
  9879 9871 9878 1    
  9880 9871 9880 1    
  9881 9881 9896 1    
  9882 9881 9887 1    
  9883 9882 9890 2    
  9884 9883 9884 1    
  9885 9883 9897 1    
  9886 9883 9890 am   BACKBONE|DICT|INTERRES
  9887 9884 9889 ar   
  9888 9884 9885 ar   
  9889 9885 9886 ar   
  9890 9885 9892 1    
  9891 9886 9887 ar   
  9892 9886 9893 1    
  9893 9887 9888 ar   
  9894 9888 9889 ar   
  9895 9888 9894 1    
  9896 9889 9895 1    
  9897 9890 9891 1    
  9898 9891 9898 1    
  9899 9891 9900 1    
  9900 9891 9899 1    
  9901 9901 9907 1    
  9902 9901 9916 1    
  9903 9902 9910 2    
  9904 9903 9910 am   BACKBONE|DICT|INTERRES
  9905 9903 9904 1    
  9906 9903 9917 1    
  9907 9904 9909 ar   
  9908 9904 9905 ar   
  9909 9905 9912 1    
  9910 9905 9906 ar   
  9911 9906 9913 1    
  9912 9906 9907 ar   
  9913 9907 9908 ar   
  9914 9908 9914 1    
  9915 9908 9909 ar   
  9916 9909 9915 1    
  9917 9910 9911 1    
  9918 9911 9918 1    
  9919 9911 9920 1    
  9920 9911 9919 1    
  9921 9921 9936 1    
  9922 9921 9927 1    
  9923 9922 9930 2    
  9924 9923 9937 1    
  9925 9923 9930 am   BACKBONE|DICT|INTERRES
  9926 9923 9924 1    
  9927 9924 9925 ar   
  9928 9924 9929 ar   
  9929 9925 9932 1    
  9930 9925 9926 ar   
  9931 9926 9927 ar   
  9932 9926 9933 1    
  9933 9927 9928 ar   
  9934 9928 9929 ar   
  9935 9928 9934 1    
  9936 9929 9935 1    
  9937 9930 9931 1    
  9938 9931 9939 1    
  9939 9931 9938 1    
  9940 9931 9940 1    
  9941 9941 9956 1    
  9942 9941 9947 1    
  9943 9942 9950 2    
  9944 9943 9944 1    
  9945 9943 9957 1    
  9946 9943 9950 am   BACKBONE|DICT|INTERRES
  9947 9944 9945 ar   
  9948 9944 9949 ar   
  9949 9945 9946 ar   
  9950 9945 9952 1    
  9951 9946 9953 1    
  9952 9946 9947 ar   
  9953 9947 9948 ar   
  9954 9948 9954 1    
  9955 9948 9949 ar   
  9956 9949 9955 1    
  9957 9950 9951 1    
  9958 9951 9959 1    
  9959 9951 9958 1    
  9960 9951 9960 1    
  9961 9961 9976 1    
  9962 9961 9967 1    
  9963 9962 9970 2    
  9964 9963 9964 1    
  9965 9963 9977 1    
  9966 9963 9970 am   BACKBONE|DICT|INTERRES
  9967 9964 9969 ar   
  9968 9964 9965 ar   
  9969 9965 9966 ar   
  9970 9965 9972 1    
  9971 9966 9967 ar   
  9972 9966 9973 1    
  9973 9967 9968 ar   
  9974 9968 9969 ar   
  9975 9968 9974 1    
  9976 9969 9975 1    
  9977 9970 9971 1    
  9978 9971 9978 1    
  9979 9971 9980 1    
  9980 9971 9979 1    
  9981 9981 9987 1    
  9982 9981 9996 1    
  9983 9982 9990 2    
  9984 9983 9990 am   BACKBONE|DICT|INTERRES
  9985 9983 9984 1    
  9986 9983 9997 1    
  9987 9984 9989 ar   
  9988 9984 9985 ar   
  9989 9985 9992 1    
  9990 9985 9986 ar   
  9991 9986 9993 1    
  9992 9986 9987 ar   
  9993 9987 9988 ar   
  9994 9988 9994 1    
  9995 9988 9989 ar   
  9996 9989 9995 1    
  9997 9990 9991 1    
  9998 9991 9998 1    
  9999 9991 10000 1    
 10000 9991 9999 1    
 10001 10001 10016 1    
 10002 10001 10007 1    
 10003 10002 10010 2    
 10004 10003 10017 1    
 10005 10003 10010 am   BACKBONE|DICT|INTERRES
 10006 10003 10004 1    
 10007 10004 10005 ar   
 10008 10004 10009 ar   
 10009 10005 10012 1    
 10010 10005 10006 ar   
 10011 10006 10007 ar   
 10012 10006 10013 1    
 10013 10007 10008 ar   
 10014 10008 10009 ar   
 10015 10008 10014 1    
 10016 10009 10015 1    
 10017 10010 10011 1    
 10018 10011 10019 1    
 10019 10011 10018 1    
 10020 10011 10020 1    
 10021 10021 10036 1    
 10022 10021 10027 1    
 10023 10022 10030 2    
 10024 10023 10024 1    
 10025 10023 10037 1    
 10026 10023 10030 am   BACKBONE|DICT|INTERRES
 10027 10024 10025 ar   
 10028 10024 10029 ar   
 10029 10025 10026 ar   
 10030 10025 10032 1    
 10031 10026 10033 1    
 10032 10026 10027 ar   
 10033 10027 10028 ar   
 10034 10028 10034 1    
 10035 10028 10029 ar   
 10036 10029 10035 1    
 10037 10030 10031 1    
 10038 10031 10039 1    
 10039 10031 10038 1    
 10040 10031 10040 1    
 10041 10041 10056 1    
 10042 10041 10047 1    
 10043 10042 10050 2    
 10044 10043 10044 1    
 10045 10043 10057 1    
 10046 10043 10050 am   BACKBONE|DICT|INTERRES
 10047 10044 10049 ar   
 10048 10044 10045 ar   
 10049 10045 10046 ar   
 10050 10045 10052 1    
 10051 10046 10047 ar   
 10052 10046 10053 1    
 10053 10047 10048 ar   
 10054 10048 10049 ar   
 10055 10048 10054 1    
 10056 10049 10055 1    
 10057 10050 10051 1    
 10058 10051 10058 1    
 10059 10051 10060 1    
 10060 10051 10059 1    
 10061 10061 10067 1    
 10062 10061 10076 1    
 10063 10062 10070 2    
 10064 10063 10070 am   BACKBONE|DICT|INTERRES
 10065 10063 10064 1    
 10066 10063 10077 1    
 10067 10064 10069 ar   
 10068 10064 10065 ar   
 10069 10065 10072 1    
 10070 10065 10066 ar   
 10071 10066 10073 1    
 10072 10066 10067 ar   
 10073 10067 10068 ar   
 10074 10068 10074 1    
 10075 10068 10069 ar   
 10076 10069 10075 1    
 10077 10070 10071 1    
 10078 10071 10078 1    
 10079 10071 10080 1    
 10080 10071 10079 1    
 10081 10081 10096 1    
 10082 10081 10087 1    
 10083 10082 10090 2    
 10084 10083 10097 1    
 10085 10083 10090 am   BACKBONE|DICT|INTERRES
 10086 10083 10084 1    
 10087 10084 10085 ar   
 10088 10084 10089 ar   
 10089 10085 10092 1    
 10090 10085 10086 ar   
 10091 10086 10087 ar   
 10092 10086 10093 1    
 10093 10087 10088 ar   
 10094 10088 10089 ar   
 10095 10088 10094 1    
 10096 10089 10095 1    
 10097 10090 10091 1    
 10098 10091 10099 1    
 10099 10091 10098 1    
 10100 10091 10100 1    
 10101 10101 10116 1    
 10102 10101 10107 1    
 10103 10102 10110 2    
 10104 10103 10104 1    
 10105 10103 10117 1    
 10106 10103 10110 am   BACKBONE|DICT|INTERRES
 10107 10104 10105 ar   
 10108 10104 10109 ar   
 10109 10105 10106 ar   
 10110 10105 10112 1    
 10111 10106 10113 1    
 10112 10106 10107 ar   
 10113 10107 10108 ar   
 10114 10108 10114 1    
 10115 10108 10109 ar   
 10116 10109 10115 1    
 10117 10110 10111 1    
 10118 10111 10119 1    
 10119 10111 10118 1    
 10120 10111 10120 1    
 10121 10121 10136 1    
 10122 10121 10127 1    
 10123 10122 10130 2    
 10124 10123 10124 1    
 10125 10123 10137 1    
 10126 10123 10130 am   BACKBONE|DICT|INTERRES
 10127 10124 10129 ar   
 10128 10124 10125 ar   
 10129 10125 10126 ar   
 10130 10125 10132 1    
 10131 10126 10127 ar   
 10132 10126 10133 1    
 10133 10127 10128 ar   
 10134 10128 10129 ar   
 10135 10128 10134 1    
 10136 10129 10135 1    
 10137 10130 10131 1    
 10138 10131 10138 1    
 10139 10131 10140 1    
 10140 10131 10139 1    
 10141 10141 10147 1    
 10142 10141 10156 1    
 10143 10142 10150 2    
 10144 10143 10150 am   BACKBONE|DICT|INTERRES
 10145 10143 10144 1    
 10146 10143 10157 1    
 10147 10144 10149 ar   
 10148 10144 10145 ar   
 10149 10145 10152 1    
 10150 10145 10146 ar   
 10151 10146 10153 1    
 10152 10146 10147 ar   
 10153 10147 10148 ar   
 10154 10148 10154 1    
 10155 10148 10149 ar   
 10156 10149 10155 1    
 10157 10150 10151 1    
 10158 10151 10158 1    
 10159 10151 10160 1    
 10160 10151 10159 1    
 10161 10161 10176 1    
 10162 10161 10167 1    
 10163 10162 10170 2    
 10164 10163 10177 1    
 10165 10163 10170 am   BACKBONE|DICT|INTERRES
 10166 10163 10164 1    
 10167 10164 10165 ar   
 10168 10164 10169 ar   
 10169 10165 10172 1    
 10170 10165 10166 ar   
 10171 10166 10167 ar   
 10172 10166 10173 1    
 10173 10167 10168 ar   
 10174 10168 10169 ar   
 10175 10168 10174 1    
 10176 10169 10175 1    
 10177 10170 10171 1    
 10178 10171 10179 1    
 10179 10171 10178 1    
 10180 10171 10180 1    
 10181 10181 10196 1    
 10182 10181 10187 1    
 10183 10182 10190 2    
 10184 10183 10184 1    
 10185 10183 10197 1    
 10186 10183 10190 am   BACKBONE|DICT|INTERRES
 10187 10184 10185 ar   
 10188 10184 10189 ar   
 10189 10185 10186 ar   
 10190 10185 10192 1    
 10191 10186 10193 1    
 10192 10186 10187 ar   
 10193 10187 10188 ar   
 10194 10188 10194 1    
 10195 10188 10189 ar   
 10196 10189 10195 1    
 10197 10190 10191 1    
 10198 10191 10199 1    
 10199 10191 10198 1    
 10200 10191 10200 1    
 10201 10201 10216 1    
 10202 10201 10207 1    
 10203 10202 10210 2    
 10204 10203 10204 1    
 10205 10203 10217 1    
 10206 10203 10210 am   BACKBONE|DICT|INTERRES
 10207 10204 10209 ar   
 10208 10204 10205 ar   
 10209 10205 10206 ar   
 10210 10205 10212 1    
 10211 10206 10207 ar   
 10212 10206 10213 1    
 10213 10207 10208 ar   
 10214 10208 10209 ar   
 10215 10208 10214 1    
 10216 10209 10215 1    
 10217 10210 10211 1    
 10218 10211 10218 1    
 10219 10211 10220 1    
 10220 10211 10219 1    
 10221 10221 10227 1    
 10222 10221 10236 1    
 10223 10222 10230 2    
 10224 10223 10230 am   BACKBONE|DICT|INTERRES
 10225 10223 10224 1    
 10226 10223 10237 1    
 10227 10224 10229 ar   
 10228 10224 10225 ar   
 10229 10225 10232 1    
 10230 10225 10226 ar   
 10231 10226 10233 1    
 10232 10226 10227 ar   
 10233 10227 10228 ar   
 10234 10228 10234 1    
 10235 10228 10229 ar   
 10236 10229 10235 1    
 10237 10230 10231 1    
 10238 10231 10238 1    
 10239 10231 10240 1    
 10240 10231 10239 1    
 10241 10241 10256 1    
 10242 10241 10247 1    
 10243 10242 10250 2    
 10244 10243 10257 1    
 10245 10243 10250 am   BACKBONE|DICT|INTERRES
 10246 10243 10244 1    
 10247 10244 10245 ar   
 10248 10244 10249 ar   
 10249 10245 10252 1    
 10250 10245 10246 ar   
 10251 10246 10247 ar   
 10252 10246 10253 1    
 10253 10247 10248 ar   
 10254 10248 10249 ar   
 10255 10248 10254 1    
 10256 10249 10255 1    
 10257 10250 10251 1    
 10258 10251 10259 1    
 10259 10251 10258 1    
 10260 10251 10260 1    
 10261 10261 10276 1    
 10262 10261 10267 1    
 10263 10262 10270 2    
 10264 10263 10264 1    
 10265 10263 10277 1    
 10266 10263 10270 am   BACKBONE|DICT|INTERRES
 10267 10264 10265 ar   
 10268 10264 10269 ar   
 10269 10265 10266 ar   
 10270 10265 10272 1    
 10271 10266 10273 1    
 10272 10266 10267 ar   
 10273 10267 10268 ar   
 10274 10268 10274 1    
 10275 10268 10269 ar   
 10276 10269 10275 1    
 10277 10270 10271 1    
 10278 10271 10279 1    
 10279 10271 10278 1    
 10280 10271 10280 1    
 10281 10281 10296 1    
 10282 10281 10287 1    
 10283 10282 10290 2    
 10284 10283 10284 1    
 10285 10283 10297 1    
 10286 10283 10290 am   BACKBONE|DICT|INTERRES
 10287 10284 10289 ar   
 10288 10284 10285 ar   
 10289 10285 10286 ar   
 10290 10285 10292 1    
 10291 10286 10287 ar   
 10292 10286 10293 1    
 10293 10287 10288 ar   
 10294 10288 10289 ar   
 10295 10288 10294 1    
 10296 10289 10295 1    
 10297 10290 10291 1    
 10298 10291 10298 1    
 10299 10291 10300 1    
 10300 10291 10299 1    
 10301 10301 10307 1    
 10302 10301 10316 1    
 10303 10302 10310 2    
 10304 10303 10310 am   BACKBONE|DICT|INTERRES
 10305 10303 10304 1    
 10306 10303 10317 1    
 10307 10304 10309 ar   
 10308 10304 10305 ar   
 10309 10305 10312 1    
 10310 10305 10306 ar   
 10311 10306 10313 1    
 10312 10306 10307 ar   
 10313 10307 10308 ar   
 10314 10308 10314 1    
 10315 10308 10309 ar   
 10316 10309 10315 1    
 10317 10310 10311 1    
 10318 10311 10318 1    
 10319 10311 10320 1    
 10320 10311 10319 1    
 10321 10321 10336 1    
 10322 10321 10327 1    
 10323 10322 10330 2    
 10324 10323 10337 1    
 10325 10323 10330 am   BACKBONE|DICT|INTERRES
 10326 10323 10324 1    
 10327 10324 10325 ar   
 10328 10324 10329 ar   
 10329 10325 10332 1    
 10330 10325 10326 ar   
 10331 10326 10327 ar   
 10332 10326 10333 1    
 10333 10327 10328 ar   
 10334 10328 10329 ar   
 10335 10328 10334 1    
 10336 10329 10335 1    
 10337 10330 10331 1    
 10338 10331 10339 1    
 10339 10331 10338 1    
 10340 10331 10340 1    
 10341 10341 10356 1    
 10342 10341 10347 1    
 10343 10342 10350 2    
 10344 10343 10344 1    
 10345 10343 10357 1    
 10346 10343 10350 am   BACKBONE|DICT|INTERRES
 10347 10344 10345 ar   
 10348 10344 10349 ar   
 10349 10345 10346 ar   
 10350 10345 10352 1    
 10351 10346 10353 1    
 10352 10346 10347 ar   
 10353 10347 10348 ar   
 10354 10348 10354 1    
 10355 10348 10349 ar   
 10356 10349 10355 1    
 10357 10350 10351 1    
 10358 10351 10359 1    
 10359 10351 10358 1    
 10360 10351 10360 1    
 10361 10361 10376 1    
 10362 10361 10367 1    
 10363 10362 10370 2    
 10364 10363 10364 1    
 10365 10363 10377 1    
 10366 10363 10370 am   BACKBONE|DICT|INTERRES
 10367 10364 10369 ar   
 10368 10364 10365 ar   
 10369 10365 10366 ar   
 10370 10365 10372 1    
 10371 10366 10367 ar   
 10372 10366 10373 1    
 10373 10367 10368 ar   
 10374 10368 10369 ar   
 10375 10368 10374 1    
 10376 10369 10375 1    
 10377 10370 10371 1    
 10378 10371 10378 1    
 10379 10371 10380 1    
 10380 10371 10379 1    
 10381 10381 10387 1    
 10382 10381 10396 1    
 10383 10382 10390 2    
 10384 10383 10390 am   BACKBONE|DICT|INTERRES
 10385 10383 10384 1    
 10386 10383 10397 1    
 10387 10384 10389 ar   
 10388 10384 10385 ar   
 10389 10385 10392 1    
 10390 10385 10386 ar   
 10391 10386 10393 1    
 10392 10386 10387 ar   
 10393 10387 10388 ar   
 10394 10388 10394 1    
 10395 10388 10389 ar   
 10396 10389 10395 1    
 10397 10390 10391 1    
 10398 10391 10398 1    
 10399 10391 10400 1    
 10400 10391 10399 1    
 10401 10401 10416 1    
 10402 10401 10407 1    
 10403 10402 10410 2    
 10404 10403 10417 1    
 10405 10403 10410 am   BACKBONE|DICT|INTERRES
 10406 10403 10404 1    
 10407 10404 10405 ar   
 10408 10404 10409 ar   
 10409 10405 10412 1    
 10410 10405 10406 ar   
 10411 10406 10407 ar   
 10412 10406 10413 1    
 10413 10407 10408 ar   
 10414 10408 10409 ar   
 10415 10408 10414 1    
 10416 10409 10415 1    
 10417 10410 10411 1    
 10418 10411 10419 1    
 10419 10411 10418 1    
 10420 10411 10420 1    
 10421 10421 10436 1    
 10422 10421 10427 1    
 10423 10422 10430 2    
 10424 10423 10424 1    
 10425 10423 10437 1    
 10426 10423 10430 am   BACKBONE|DICT|INTERRES
 10427 10424 10425 ar   
 10428 10424 10429 ar   
 10429 10425 10426 ar   
 10430 10425 10432 1    
 10431 10426 10433 1    
 10432 10426 10427 ar   
 10433 10427 10428 ar   
 10434 10428 10434 1    
 10435 10428 10429 ar   
 10436 10429 10435 1    
 10437 10430 10431 1    
 10438 10431 10439 1    
 10439 10431 10438 1    
 10440 10431 10440 1    
 10441 10441 10456 1    
 10442 10441 10447 1    
 10443 10442 10450 2    
 10444 10443 10444 1    
 10445 10443 10457 1    
 10446 10443 10450 am   BACKBONE|DICT|INTERRES
 10447 10444 10449 ar   
 10448 10444 10445 ar   
 10449 10445 10446 ar   
 10450 10445 10452 1    
 10451 10446 10447 ar   
 10452 10446 10453 1    
 10453 10447 10448 ar   
 10454 10448 10449 ar   
 10455 10448 10454 1    
 10456 10449 10455 1    
 10457 10450 10451 1    
 10458 10451 10458 1    
 10459 10451 10460 1    
 10460 10451 10459 1    
 10461 10461 10467 1    
 10462 10461 10476 1    
 10463 10462 10470 2    
 10464 10463 10470 am   BACKBONE|DICT|INTERRES
 10465 10463 10464 1    
 10466 10463 10477 1    
 10467 10464 10469 ar   
 10468 10464 10465 ar   
 10469 10465 10472 1    
 10470 10465 10466 ar   
 10471 10466 10473 1    
 10472 10466 10467 ar   
 10473 10467 10468 ar   
 10474 10468 10474 1    
 10475 10468 10469 ar   
 10476 10469 10475 1    
 10477 10470 10471 1    
 10478 10471 10478 1    
 10479 10471 10480 1    
 10480 10471 10479 1    
 10481 10481 10496 1    
 10482 10481 10487 1    
 10483 10482 10490 2    
 10484 10483 10497 1    
 10485 10483 10490 am   BACKBONE|DICT|INTERRES
 10486 10483 10484 1    
 10487 10484 10485 ar   
 10488 10484 10489 ar   
 10489 10485 10492 1    
 10490 10485 10486 ar   
 10491 10486 10487 ar   
 10492 10486 10493 1    
 10493 10487 10488 ar   
 10494 10488 10489 ar   
 10495 10488 10494 1    
 10496 10489 10495 1    
 10497 10490 10491 1    
 10498 10491 10499 1    
 10499 10491 10498 1    
 10500 10491 10500 1    
 10501 10501 10516 1    
 10502 10501 10507 1    
 10503 10502 10510 2    
 10504 10503 10504 1    
 10505 10503 10517 1    
 10506 10503 10510 am   BACKBONE|DICT|INTERRES
 10507 10504 10505 ar   
 10508 10504 10509 ar   
 10509 10505 10506 ar   
 10510 10505 10512 1    
 10511 10506 10513 1    
 10512 10506 10507 ar   
 10513 10507 10508 ar   
 10514 10508 10514 1    
 10515 10508 10509 ar   
 10516 10509 10515 1    
 10517 10510 10511 1    
 10518 10511 10519 1    
 10519 10511 10518 1    
 10520 10511 10520 1    
 10521 10521 10536 1    
 10522 10521 10527 1    
 10523 10522 10530 2    
 10524 10523 10524 1    
 10525 10523 10537 1    
 10526 10523 10530 am   BACKBONE|DICT|INTERRES
 10527 10524 10529 ar   
 10528 10524 10525 ar   
 10529 10525 10526 ar   
 10530 10525 10532 1    
 10531 10526 10527 ar   
 10532 10526 10533 1    
 10533 10527 10528 ar   
 10534 10528 10529 ar   
 10535 10528 10534 1    
 10536 10529 10535 1    
 10537 10530 10531 1    
 10538 10531 10538 1    
 10539 10531 10540 1    
 10540 10531 10539 1    
 10541 10541 10547 1    
 10542 10541 10556 1    
 10543 10542 10550 2    
 10544 10543 10550 am   BACKBONE|DICT|INTERRES
 10545 10543 10544 1    
 10546 10543 10557 1    
 10547 10544 10549 ar   
 10548 10544 10545 ar   
 10549 10545 10552 1    
 10550 10545 10546 ar   
 10551 10546 10553 1    
 10552 10546 10547 ar   
 10553 10547 10548 ar   
 10554 10548 10554 1    
 10555 10548 10549 ar   
 10556 10549 10555 1    
 10557 10550 10551 1    
 10558 10551 10558 1    
 10559 10551 10560 1    
 10560 10551 10559 1    
 10561 10561 10576 1    
 10562 10561 10567 1    
 10563 10562 10570 2    
 10564 10563 10577 1    
 10565 10563 10570 am   BACKBONE|DICT|INTERRES
 10566 10563 10564 1    
 10567 10564 10565 ar   
 10568 10564 10569 ar   
 10569 10565 10572 1    
 10570 10565 10566 ar   
 10571 10566 10567 ar   
 10572 10566 10573 1    
 10573 10567 10568 ar   
 10574 10568 10569 ar   
 10575 10568 10574 1    
 10576 10569 10575 1    
 10577 10570 10571 1    
 10578 10571 10579 1    
 10579 10571 10578 1    
 10580 10571 10580 1    
 10581 10581 10596 1    
 10582 10581 10587 1    
 10583 10582 10590 2    
 10584 10583 10584 1    
 10585 10583 10597 1    
 10586 10583 10590 am   BACKBONE|DICT|INTERRES
 10587 10584 10585 ar   
 10588 10584 10589 ar   
 10589 10585 10586 ar   
 10590 10585 10592 1    
 10591 10586 10593 1    
 10592 10586 10587 ar   
 10593 10587 10588 ar   
 10594 10588 10594 1    
 10595 10588 10589 ar   
 10596 10589 10595 1    
 10597 10590 10591 1    
 10598 10591 10599 1    
 10599 10591 10598 1    
 10600 10591 10600 1    
 10601 10601 10616 1    
 10602 10601 10607 1    
 10603 10602 10610 2    
 10604 10603 10604 1    
 10605 10603 10617 1    
 10606 10603 10610 am   BACKBONE|DICT|INTERRES
 10607 10604 10609 ar   
 10608 10604 10605 ar   
 10609 10605 10606 ar   
 10610 10605 10612 1    
 10611 10606 10607 ar   
 10612 10606 10613 1    
 10613 10607 10608 ar   
 10614 10608 10609 ar   
 10615 10608 10614 1    
 10616 10609 10615 1    
 10617 10610 10611 1    
 10618 10611 10618 1    
 10619 10611 10620 1    
 10620 10611 10619 1    
 10621 10621 10627 1    
 10622 10621 10636 1    
 10623 10622 10630 2    
 10624 10623 10630 am   BACKBONE|DICT|INTERRES
 10625 10623 10624 1    
 10626 10623 10637 1    
 10627 10624 10629 ar   
 10628 10624 10625 ar   
 10629 10625 10632 1    
 10630 10625 10626 ar   
 10631 10626 10633 1    
 10632 10626 10627 ar   
 10633 10627 10628 ar   
 10634 10628 10634 1    
 10635 10628 10629 ar   
 10636 10629 10635 1    
 10637 10630 10631 1    
 10638 10631 10638 1    
 10639 10631 10640 1    
 10640 10631 10639 1    
 10641 10641 10656 1    
 10642 10641 10647 1    
 10643 10642 10650 2    
 10644 10643 10657 1    
 10645 10643 10650 am   BACKBONE|DICT|INTERRES
 10646 10643 10644 1    
 10647 10644 10645 ar   
 10648 10644 10649 ar   
 10649 10645 10652 1    
 10650 10645 10646 ar   
 10651 10646 10647 ar   
 10652 10646 10653 1    
 10653 10647 10648 ar   
 10654 10648 10649 ar   
 10655 10648 10654 1    
 10656 10649 10655 1    
 10657 10650 10651 1    
 10658 10651 10659 1    
 10659 10651 10658 1    
 10660 10651 10660 1    
 10661 10661 10676 1    
 10662 10661 10667 1    
 10663 10662 10670 2    
 10664 10663 10664 1    
 10665 10663 10677 1    
 10666 10663 10670 am   BACKBONE|DICT|INTERRES
 10667 10664 10665 ar   
 10668 10664 10669 ar   
 10669 10665 10666 ar   
 10670 10665 10672 1    
 10671 10666 10673 1    
 10672 10666 10667 ar   
 10673 10667 10668 ar   
 10674 10668 10674 1    
 10675 10668 10669 ar   
 10676 10669 10675 1    
 10677 10670 10671 1    
 10678 10671 10679 1    
 10679 10671 10678 1    
 10680 10671 10680 1    
 10681 10681 10696 1    
 10682 10681 10687 1    
 10683 10682 10690 2    
 10684 10683 10684 1    
 10685 10683 10697 1    
 10686 10683 10690 am   BACKBONE|DICT|INTERRES
 10687 10684 10689 ar   
 10688 10684 10685 ar   
 10689 10685 10686 ar   
 10690 10685 10692 1    
 10691 10686 10687 ar   
 10692 10686 10693 1    
 10693 10687 10688 ar   
 10694 10688 10689 ar   
 10695 10688 10694 1    
 10696 10689 10695 1    
 10697 10690 10691 1    
 10698 10691 10698 1    
 10699 10691 10700 1    
 10700 10691 10699 1    
 10701 10701 10707 1    
 10702 10701 10716 1    
 10703 10702 10710 2    
 10704 10703 10710 am   BACKBONE|DICT|INTERRES
 10705 10703 10704 1    
 10706 10703 10717 1    
 10707 10704 10709 ar   
 10708 10704 10705 ar   
 10709 10705 10712 1    
 10710 10705 10706 ar   
 10711 10706 10713 1    
 10712 10706 10707 ar   
 10713 10707 10708 ar   
 10714 10708 10714 1    
 10715 10708 10709 ar   
 10716 10709 10715 1    
 10717 10710 10711 1    
 10718 10711 10718 1    
 10719 10711 10720 1    
 10720 10711 10719 1    
 10721 10721 10736 1    
 10722 10721 10727 1    
 10723 10722 10730 2    
 10724 10723 10737 1    
 10725 10723 10730 am   BACKBONE|DICT|INTERRES
 10726 10723 10724 1    
 10727 10724 10725 ar   
 10728 10724 10729 ar   
 10729 10725 10732 1    
 10730 10725 10726 ar   
 10731 10726 10727 ar   
 10732 10726 10733 1    
 10733 10727 10728 ar   
 10734 10728 10729 ar   
 10735 10728 10734 1    
 10736 10729 10735 1    
 10737 10730 10731 1    
 10738 10731 10739 1    
 10739 10731 10738 1    
 10740 10731 10740 1    
 10741 10741 10756 1    
 10742 10741 10747 1    
 10743 10742 10750 2    
 10744 10743 10744 1    
 10745 10743 10757 1    
 10746 10743 10750 am   BACKBONE|DICT|INTERRES
 10747 10744 10745 ar   
 10748 10744 10749 ar   
 10749 10745 10746 ar   
 10750 10745 10752 1    
 10751 10746 10753 1    
 10752 10746 10747 ar   
 10753 10747 10748 ar   
 10754 10748 10754 1    
 10755 10748 10749 ar   
 10756 10749 10755 1    
 10757 10750 10751 1    
 10758 10751 10759 1    
 10759 10751 10758 1    
 10760 10751 10760 1    
 10761 10761 10776 1    
 10762 10761 10767 1    
 10763 10762 10770 2    
 10764 10763 10764 1    
 10765 10763 10777 1    
 10766 10763 10770 am   BACKBONE|DICT|INTERRES
 10767 10764 10769 ar   
 10768 10764 10765 ar   
 10769 10765 10766 ar   
 10770 10765 10772 1    
 10771 10766 10767 ar   
 10772 10766 10773 1    
 10773 10767 10768 ar   
 10774 10768 10769 ar   
 10775 10768 10774 1    
 10776 10769 10775 1    
 10777 10770 10771 1    
 10778 10771 10778 1    
 10779 10771 10780 1    
 10780 10771 10779 1    
 10781 10781 10787 1    
 10782 10781 10796 1    
 10783 10782 10790 2    
 10784 10783 10790 am   BACKBONE|DICT|INTERRES
 10785 10783 10784 1    
 10786 10783 10797 1    
 10787 10784 10789 ar   
 10788 10784 10785 ar   
 10789 10785 10792 1    
 10790 10785 10786 ar   
 10791 10786 10793 1    
 10792 10786 10787 ar   
 10793 10787 10788 ar   
 10794 10788 10794 1    
 10795 10788 10789 ar   
 10796 10789 10795 1    
 10797 10790 10791 1    
 10798 10791 10798 1    
 10799 10791 10800 1    
 10800 10791 10799 1    
 10801 10801 10816 1    
 10802 10801 10807 1    
 10803 10802 10810 2    
 10804 10803 10817 1    
 10805 10803 10810 am   BACKBONE|DICT|INTERRES
 10806 10803 10804 1    
 10807 10804 10805 ar   
 10808 10804 10809 ar   
 10809 10805 10812 1    
 10810 10805 10806 ar   
 10811 10806 10807 ar   
 10812 10806 10813 1    
 10813 10807 10808 ar   
 10814 10808 10809 ar   
 10815 10808 10814 1    
 10816 10809 10815 1    
 10817 10810 10811 1    
 10818 10811 10819 1    
 10819 10811 10818 1    
 10820 10811 10820 1    
 10821 10821 10836 1    
 10822 10821 10827 1    
 10823 10822 10830 2    
 10824 10823 10824 1    
 10825 10823 10837 1    
 10826 10823 10830 am   BACKBONE|DICT|INTERRES
 10827 10824 10825 ar   
 10828 10824 10829 ar   
 10829 10825 10826 ar   
 10830 10825 10832 1    
 10831 10826 10833 1    
 10832 10826 10827 ar   
 10833 10827 10828 ar   
 10834 10828 10834 1    
 10835 10828 10829 ar   
 10836 10829 10835 1    
 10837 10830 10831 1    
 10838 10831 10839 1    
 10839 10831 10838 1    
 10840 10831 10840 1    
 10841 10841 10856 1    
 10842 10841 10847 1    
 10843 10842 10850 2    
 10844 10843 10844 1    
 10845 10843 10857 1    
 10846 10843 10850 am   BACKBONE|DICT|INTERRES
 10847 10844 10849 ar   
 10848 10844 10845 ar   
 10849 10845 10846 ar   
 10850 10845 10852 1    
 10851 10846 10847 ar   
 10852 10846 10853 1    
 10853 10847 10848 ar   
 10854 10848 10849 ar   
 10855 10848 10854 1    
 10856 10849 10855 1    
 10857 10850 10851 1    
 10858 10851 10858 1    
 10859 10851 10860 1    
 10860 10851 10859 1    
 10861 10861 10867 1    
 10862 10861 10876 1    
 10863 10862 10870 2    
 10864 10863 10870 am   BACKBONE|DICT|INTERRES
 10865 10863 10864 1    
 10866 10863 10877 1    
 10867 10864 10869 ar   
 10868 10864 10865 ar   
 10869 10865 10872 1    
 10870 10865 10866 ar   
 10871 10866 10873 1    
 10872 10866 10867 ar   
 10873 10867 10868 ar   
 10874 10868 10874 1    
 10875 10868 10869 ar   
 10876 10869 10875 1    
 10877 10870 10871 1    
 10878 10871 10878 1    
 10879 10871 10880 1    
 10880 10871 10879 1    
 10881 10881 10896 1    
 10882 10881 10887 1    
 10883 10882 10890 2    
 10884 10883 10897 1    
 10885 10883 10890 am   BACKBONE|DICT|INTERRES
 10886 10883 10884 1    
 10887 10884 10885 ar   
 10888 10884 10889 ar   
 10889 10885 10892 1    
 10890 10885 10886 ar   
 10891 10886 10887 ar   
 10892 10886 10893 1    
 10893 10887 10888 ar   
 10894 10888 10889 ar   
 10895 10888 10894 1    
 10896 10889 10895 1    
 10897 10890 10891 1    
 10898 10891 10899 1    
 10899 10891 10898 1    
 10900 10891 10900 1    
 10901 10901 10916 1    
 10902 10901 10907 1    
 10903 10902 10910 2    
 10904 10903 10904 1    
 10905 10903 10917 1    
 10906 10903 10910 am   BACKBONE|DICT|INTERRES
 10907 10904 10905 ar   
 10908 10904 10909 ar   
 10909 10905 10906 ar   
 10910 10905 10912 1    
 10911 10906 10913 1    
 10912 10906 10907 ar   
 10913 10907 10908 ar   
 10914 10908 10914 1    
 10915 10908 10909 ar   
 10916 10909 10915 1    
 10917 10910 10911 1    
 10918 10911 10919 1    
 10919 10911 10918 1    
 10920 10911 10920 1    
 10921 10921 10936 1    
 10922 10921 10927 1    
 10923 10922 10930 2    
 10924 10923 10924 1    
 10925 10923 10937 1    
 10926 10923 10930 am   BACKBONE|DICT|INTERRES
 10927 10924 10929 ar   
 10928 10924 10925 ar   
 10929 10925 10926 ar   
 10930 10925 10932 1    
 10931 10926 10927 ar   
 10932 10926 10933 1    
 10933 10927 10928 ar   
 10934 10928 10929 ar   
 10935 10928 10934 1    
 10936 10929 10935 1    
 10937 10930 10931 1    
 10938 10931 10938 1    
 10939 10931 10940 1    
 10940 10931 10939 1    
 10941 10941 10947 1    
 10942 10941 10956 1    
 10943 10942 10950 2    
 10944 10943 10950 am   BACKBONE|DICT|INTERRES
 10945 10943 10944 1    
 10946 10943 10957 1    
 10947 10944 10949 ar   
 10948 10944 10945 ar   
 10949 10945 10952 1    
 10950 10945 10946 ar   
 10951 10946 10953 1    
 10952 10946 10947 ar   
 10953 10947 10948 ar   
 10954 10948 10954 1    
 10955 10948 10949 ar   
 10956 10949 10955 1    
 10957 10950 10951 1    
 10958 10951 10958 1    
 10959 10951 10960 1    
 10960 10951 10959 1    
 10961 10961 10976 1    
 10962 10961 10967 1    
 10963 10962 10970 2    
 10964 10963 10977 1    
 10965 10963 10970 am   BACKBONE|DICT|INTERRES
 10966 10963 10964 1    
 10967 10964 10965 ar   
 10968 10964 10969 ar   
 10969 10965 10972 1    
 10970 10965 10966 ar   
 10971 10966 10967 ar   
 10972 10966 10973 1    
 10973 10967 10968 ar   
 10974 10968 10969 ar   
 10975 10968 10974 1    
 10976 10969 10975 1    
 10977 10970 10971 1    
 10978 10971 10979 1    
 10979 10971 10978 1    
 10980 10971 10980 1    
 10981 10981 10996 1    
 10982 10981 10987 1    
 10983 10982 10990 2    
 10984 10983 10984 1    
 10985 10983 10997 1    
 10986 10983 10990 am   BACKBONE|DICT|INTERRES
 10987 10984 10985 ar   
 10988 10984 10989 ar   
 10989 10985 10986 ar   
 10990 10985 10992 1    
 10991 10986 10993 1    
 10992 10986 10987 ar   
 10993 10987 10988 ar   
 10994 10988 10994 1    
 10995 10988 10989 ar   
 10996 10989 10995 1    
 10997 10990 10991 1    
 10998 10991 10999 1    
 10999 10991 10998 1    
 11000 10991 11000 1    
 11001 11001 11016 1    
 11002 11001 11007 1    
 11003 11002 11010 2    
 11004 11003 11004 1    
 11005 11003 11017 1    
 11006 11003 11010 am   BACKBONE|DICT|INTERRES
 11007 11004 11009 ar   
 11008 11004 11005 ar   
 11009 11005 11006 ar   
 11010 11005 11012 1    
 11011 11006 11007 ar   
 11012 11006 11013 1    
 11013 11007 11008 ar   
 11014 11008 11009 ar   
 11015 11008 11014 1    
 11016 11009 11015 1    
 11017 11010 11011 1    
 11018 11011 11018 1    
 11019 11011 11020 1    
 11020 11011 11019 1    
 11021 11021 11027 1    
 11022 11021 11036 1    
 11023 11022 11030 2    
 11024 11023 11030 am   BACKBONE|DICT|INTERRES
 11025 11023 11024 1    
 11026 11023 11037 1    
 11027 11024 11029 ar   
 11028 11024 11025 ar   
 11029 11025 11032 1    
 11030 11025 11026 ar   
 11031 11026 11033 1    
 11032 11026 11027 ar   
 11033 11027 11028 ar   
 11034 11028 11034 1    
 11035 11028 11029 ar   
 11036 11029 11035 1    
 11037 11030 11031 1    
 11038 11031 11038 1    
 11039 11031 11040 1    
 11040 11031 11039 1    
 11041 11041 11056 1    
 11042 11041 11047 1    
 11043 11042 11050 2    
 11044 11043 11057 1    
 11045 11043 11050 am   BACKBONE|DICT|INTERRES
 11046 11043 11044 1    
 11047 11044 11045 ar   
 11048 11044 11049 ar   
 11049 11045 11052 1    
 11050 11045 11046 ar   
 11051 11046 11047 ar   
 11052 11046 11053 1    
 11053 11047 11048 ar   
 11054 11048 11049 ar   
 11055 11048 11054 1    
 11056 11049 11055 1    
 11057 11050 11051 1    
 11058 11051 11059 1    
 11059 11051 11058 1    
 11060 11051 11060 1    
 11061 11061 11076 1    
 11062 11061 11067 1    
 11063 11062 11070 2    
 11064 11063 11064 1    
 11065 11063 11077 1    
 11066 11063 11070 am   BACKBONE|DICT|INTERRES
 11067 11064 11065 ar   
 11068 11064 11069 ar   
 11069 11065 11066 ar   
 11070 11065 11072 1    
 11071 11066 11073 1    
 11072 11066 11067 ar   
 11073 11067 11068 ar   
 11074 11068 11074 1    
 11075 11068 11069 ar   
 11076 11069 11075 1    
 11077 11070 11071 1    
 11078 11071 11079 1    
 11079 11071 11078 1    
 11080 11071 11080 1    
 11081 11081 11096 1    
 11082 11081 11087 1    
 11083 11082 11090 2    
 11084 11083 11084 1    
 11085 11083 11097 1    
 11086 11083 11090 am   BACKBONE|DICT|INTERRES
 11087 11084 11089 ar   
 11088 11084 11085 ar   
 11089 11085 11086 ar   
 11090 11085 11092 1    
 11091 11086 11087 ar   
 11092 11086 11093 1    
 11093 11087 11088 ar   
 11094 11088 11089 ar   
 11095 11088 11094 1    
 11096 11089 11095 1    
 11097 11090 11091 1    
 11098 11091 11098 1    
 11099 11091 11100 1    
 11100 11091 11099 1    
 11101 11101 11107 1    
 11102 11101 11116 1    
 11103 11102 11110 2    
 11104 11103 11110 am   BACKBONE|DICT|INTERRES
 11105 11103 11104 1    
 11106 11103 11117 1    
 11107 11104 11109 ar   
 11108 11104 11105 ar   
 11109 11105 11112 1    
 11110 11105 11106 ar   
 11111 11106 11113 1    
 11112 11106 11107 ar   
 11113 11107 11108 ar   
 11114 11108 11114 1    
 11115 11108 11109 ar   
 11116 11109 11115 1    
 11117 11110 11111 1    
 11118 11111 11118 1    
 11119 11111 11120 1    
 11120 11111 11119 1    
 11121 11121 11136 1    
 11122 11121 11127 1    
 11123 11122 11130 2    
 11124 11123 11137 1    
 11125 11123 11130 am   BACKBONE|DICT|INTERRES
 11126 11123 11124 1    
 11127 11124 11125 ar   
 11128 11124 11129 ar   
 11129 11125 11132 1    
 11130 11125 11126 ar   
 11131 11126 11127 ar   
 11132 11126 11133 1    
 11133 11127 11128 ar   
 11134 11128 11129 ar   
 11135 11128 11134 1    
 11136 11129 11135 1    
 11137 11130 11131 1    
 11138 11131 11139 1    
 11139 11131 11138 1    
 11140 11131 11140 1    
 11141 11141 11156 1    
 11142 11141 11147 1    
 11143 11142 11150 2    
 11144 11143 11144 1    
 11145 11143 11157 1    
 11146 11143 11150 am   BACKBONE|DICT|INTERRES
 11147 11144 11145 ar   
 11148 11144 11149 ar   
 11149 11145 11146 ar   
 11150 11145 11152 1    
 11151 11146 11153 1    
 11152 11146 11147 ar   
 11153 11147 11148 ar   
 11154 11148 11154 1    
 11155 11148 11149 ar   
 11156 11149 11155 1    
 11157 11150 11151 1    
 11158 11151 11159 1    
 11159 11151 11158 1    
 11160 11151 11160 1    
 11161 11161 11176 1    
 11162 11161 11167 1    
 11163 11162 11170 2    
 11164 11163 11164 1    
 11165 11163 11177 1    
 11166 11163 11170 am   BACKBONE|DICT|INTERRES
 11167 11164 11169 ar   
 11168 11164 11165 ar   
 11169 11165 11166 ar   
 11170 11165 11172 1    
 11171 11166 11167 ar   
 11172 11166 11173 1    
 11173 11167 11168 ar   
 11174 11168 11169 ar   
 11175 11168 11174 1    
 11176 11169 11175 1    
 11177 11170 11171 1    
 11178 11171 11178 1    
 11179 11171 11180 1    
 11180 11171 11179 1    
 11181 11181 11187 1    
 11182 11181 11196 1    
 11183 11182 11190 2    
 11184 11183 11190 am   BACKBONE|DICT|INTERRES
 11185 11183 11184 1    
 11186 11183 11197 1    
 11187 11184 11189 ar   
 11188 11184 11185 ar   
 11189 11185 11192 1    
 11190 11185 11186 ar   
 11191 11186 11193 1    
 11192 11186 11187 ar   
 11193 11187 11188 ar   
 11194 11188 11194 1    
 11195 11188 11189 ar   
 11196 11189 11195 1    
 11197 11190 11191 1    
 11198 11191 11198 1    
 11199 11191 11200 1    
 11200 11191 11199 1    
 11201 11201 11216 1    
 11202 11201 11207 1    
 11203 11202 11210 2    
 11204 11203 11217 1    
 11205 11203 11210 am   BACKBONE|DICT|INTERRES
 11206 11203 11204 1    
 11207 11204 11205 ar   
 11208 11204 11209 ar   
 11209 11205 11212 1    
 11210 11205 11206 ar   
 11211 11206 11207 ar   
 11212 11206 11213 1    
 11213 11207 11208 ar   
 11214 11208 11209 ar   
 11215 11208 11214 1    
 11216 11209 11215 1    
 11217 11210 11211 1    
 11218 11211 11219 1    
 11219 11211 11218 1    
 11220 11211 11220 1    
 11221 11221 11236 1    
 11222 11221 11227 1    
 11223 11222 11230 2    
 11224 11223 11224 1    
 11225 11223 11237 1    
 11226 11223 11230 am   BACKBONE|DICT|INTERRES
 11227 11224 11225 ar   
 11228 11224 11229 ar   
 11229 11225 11226 ar   
 11230 11225 11232 1    
 11231 11226 11233 1    
 11232 11226 11227 ar   
 11233 11227 11228 ar   
 11234 11228 11234 1    
 11235 11228 11229 ar   
 11236 11229 11235 1    
 11237 11230 11231 1    
 11238 11231 11239 1    
 11239 11231 11238 1    
 11240 11231 11240 1    
 11241 11241 11256 1    
 11242 11241 11247 1    
 11243 11242 11250 2    
 11244 11243 11244 1    
 11245 11243 11257 1    
 11246 11243 11250 am   BACKBONE|DICT|INTERRES
 11247 11244 11249 ar   
 11248 11244 11245 ar   
 11249 11245 11246 ar   
 11250 11245 11252 1    
 11251 11246 11247 ar   
 11252 11246 11253 1    
 11253 11247 11248 ar   
 11254 11248 11249 ar   
 11255 11248 11254 1    
 11256 11249 11255 1    
 11257 11250 11251 1    
 11258 11251 11258 1    
 11259 11251 11260 1    
 11260 11251 11259 1    
 11261 11261 11267 1    
 11262 11261 11276 1    
 11263 11262 11270 2    
 11264 11263 11270 am   BACKBONE|DICT|INTERRES
 11265 11263 11264 1    
 11266 11263 11277 1    
 11267 11264 11269 ar   
 11268 11264 11265 ar   
 11269 11265 11272 1    
 11270 11265 11266 ar   
 11271 11266 11273 1    
 11272 11266 11267 ar   
 11273 11267 11268 ar   
 11274 11268 11274 1    
 11275 11268 11269 ar   
 11276 11269 11275 1    
 11277 11270 11271 1    
 11278 11271 11278 1    
 11279 11271 11280 1    
 11280 11271 11279 1    
 11281 11281 11296 1    
 11282 11281 11287 1    
 11283 11282 11290 2    
 11284 11283 11297 1    
 11285 11283 11290 am   BACKBONE|DICT|INTERRES
 11286 11283 11284 1    
 11287 11284 11285 ar   
 11288 11284 11289 ar   
 11289 11285 11292 1    
 11290 11285 11286 ar   
 11291 11286 11287 ar   
 11292 11286 11293 1    
 11293 11287 11288 ar   
 11294 11288 11289 ar   
 11295 11288 11294 1    
 11296 11289 11295 1    
 11297 11290 11291 1    
 11298 11291 11299 1    
 11299 11291 11298 1    
 11300 11291 11300 1    
 11301 11301 11316 1    
 11302 11301 11307 1    
 11303 11302 11310 2    
 11304 11303 11304 1    
 11305 11303 11317 1    
 11306 11303 11310 am   BACKBONE|DICT|INTERRES
 11307 11304 11305 ar   
 11308 11304 11309 ar   
 11309 11305 11306 ar   
 11310 11305 11312 1    
 11311 11306 11313 1    
 11312 11306 11307 ar   
 11313 11307 11308 ar   
 11314 11308 11314 1    
 11315 11308 11309 ar   
 11316 11309 11315 1    
 11317 11310 11311 1    
 11318 11311 11319 1    
 11319 11311 11318 1    
 11320 11311 11320 1    
 11321 11321 11336 1    
 11322 11321 11327 1    
 11323 11322 11330 2    
 11324 11323 11324 1    
 11325 11323 11337 1    
 11326 11323 11330 am   BACKBONE|DICT|INTERRES
 11327 11324 11329 ar   
 11328 11324 11325 ar   
 11329 11325 11326 ar   
 11330 11325 11332 1    
 11331 11326 11327 ar   
 11332 11326 11333 1    
 11333 11327 11328 ar   
 11334 11328 11329 ar   
 11335 11328 11334 1    
 11336 11329 11335 1    
 11337 11330 11331 1    
 11338 11331 11338 1    
 11339 11331 11340 1    
 11340 11331 11339 1    
 11341 11341 11347 1    
 11342 11341 11356 1    
 11343 11342 11350 2    
 11344 11343 11350 am   BACKBONE|DICT|INTERRES
 11345 11343 11344 1    
 11346 11343 11357 1    
 11347 11344 11349 ar   
 11348 11344 11345 ar   
 11349 11345 11352 1    
 11350 11345 11346 ar   
 11351 11346 11353 1    
 11352 11346 11347 ar   
 11353 11347 11348 ar   
 11354 11348 11354 1    
 11355 11348 11349 ar   
 11356 11349 11355 1    
 11357 11350 11351 1    
 11358 11351 11358 1    
 11359 11351 11360 1    
 11360 11351 11359 1    
 11361 11361 11376 1    
 11362 11361 11367 1    
 11363 11362 11370 2    
 11364 11363 11377 1    
 11365 11363 11370 am   BACKBONE|DICT|INTERRES
 11366 11363 11364 1    
 11367 11364 11365 ar   
 11368 11364 11369 ar   
 11369 11365 11372 1    
 11370 11365 11366 ar   
 11371 11366 11367 ar   
 11372 11366 11373 1    
 11373 11367 11368 ar   
 11374 11368 11369 ar   
 11375 11368 11374 1    
 11376 11369 11375 1    
 11377 11370 11371 1    
 11378 11371 11379 1    
 11379 11371 11378 1    
 11380 11371 11380 1    
 11381 11381 11396 1    
 11382 11381 11387 1    
 11383 11382 11390 2    
 11384 11383 11384 1    
 11385 11383 11397 1    
 11386 11383 11390 am   BACKBONE|DICT|INTERRES
 11387 11384 11385 ar   
 11388 11384 11389 ar   
 11389 11385 11386 ar   
 11390 11385 11392 1    
 11391 11386 11393 1    
 11392 11386 11387 ar   
 11393 11387 11388 ar   
 11394 11388 11394 1    
 11395 11388 11389 ar   
 11396 11389 11395 1    
 11397 11390 11391 1    
 11398 11391 11399 1    
 11399 11391 11398 1    
 11400 11391 11400 1    
 11401 11401 11416 1    
 11402 11401 11407 1    
 11403 11402 11410 2    
 11404 11403 11404 1    
 11405 11403 11417 1    
 11406 11403 11410 am   BACKBONE|DICT|INTERRES
 11407 11404 11409 ar   
 11408 11404 11405 ar   
 11409 11405 11406 ar   
 11410 11405 11412 1    
 11411 11406 11407 ar   
 11412 11406 11413 1    
 11413 11407 11408 ar   
 11414 11408 11409 ar   
 11415 11408 11414 1    
 11416 11409 11415 1    
 11417 11410 11411 1    
 11418 11411 11418 1    
 11419 11411 11420 1    
 11420 11411 11419 1    
 11421 11421 11427 1    
 11422 11421 11436 1    
 11423 11422 11430 2    
 11424 11423 11430 am   BACKBONE|DICT|INTERRES
 11425 11423 11424 1    
 11426 11423 11437 1    
 11427 11424 11429 ar   
 11428 11424 11425 ar   
 11429 11425 11432 1    
 11430 11425 11426 ar   
 11431 11426 11433 1    
 11432 11426 11427 ar   
 11433 11427 11428 ar   
 11434 11428 11434 1    
 11435 11428 11429 ar   
 11436 11429 11435 1    
 11437 11430 11431 1    
 11438 11431 11438 1    
 11439 11431 11440 1    
 11440 11431 11439 1    
 11441 11441 11456 1    
 11442 11441 11447 1    
 11443 11442 11450 2    
 11444 11443 11457 1    
 11445 11443 11450 am   BACKBONE|DICT|INTERRES
 11446 11443 11444 1    
 11447 11444 11445 ar   
 11448 11444 11449 ar   
 11449 11445 11452 1    
 11450 11445 11446 ar   
 11451 11446 11447 ar   
 11452 11446 11453 1    
 11453 11447 11448 ar   
 11454 11448 11449 ar   
 11455 11448 11454 1    
 11456 11449 11455 1    
 11457 11450 11451 1    
 11458 11451 11459 1    
 11459 11451 11458 1    
 11460 11451 11460 1    
 11461 11461 11476 1    
 11462 11461 11467 1    
 11463 11462 11470 2    
 11464 11463 11464 1    
 11465 11463 11477 1    
 11466 11463 11470 am   BACKBONE|DICT|INTERRES
 11467 11464 11465 ar   
 11468 11464 11469 ar   
 11469 11465 11466 ar   
 11470 11465 11472 1    
 11471 11466 11473 1    
 11472 11466 11467 ar   
 11473 11467 11468 ar   
 11474 11468 11474 1    
 11475 11468 11469 ar   
 11476 11469 11475 1    
 11477 11470 11471 1    
 11478 11471 11479 1    
 11479 11471 11478 1    
 11480 11471 11480 1    
 11481 11481 11496 1    
 11482 11481 11487 1    
 11483 11482 11490 2    
 11484 11483 11484 1    
 11485 11483 11497 1    
 11486 11483 11490 am   BACKBONE|DICT|INTERRES
 11487 11484 11489 ar   
 11488 11484 11485 ar   
 11489 11485 11486 ar   
 11490 11485 11492 1    
 11491 11486 11487 ar   
 11492 11486 11493 1    
 11493 11487 11488 ar   
 11494 11488 11489 ar   
 11495 11488 11494 1    
 11496 11489 11495 1    
 11497 11490 11491 1    
 11498 11491 11498 1    
 11499 11491 11500 1    
 11500 11491 11499 1    
 11501 11501 11507 1    
 11502 11501 11516 1    
 11503 11502 11510 2    
 11504 11503 11510 am   BACKBONE|DICT|INTERRES
 11505 11503 11504 1    
 11506 11503 11517 1    
 11507 11504 11509 ar   
 11508 11504 11505 ar   
 11509 11505 11512 1    
 11510 11505 11506 ar   
 11511 11506 11513 1    
 11512 11506 11507 ar   
 11513 11507 11508 ar   
 11514 11508 11514 1    
 11515 11508 11509 ar   
 11516 11509 11515 1    
 11517 11510 11511 1    
 11518 11511 11518 1    
 11519 11511 11520 1    
 11520 11511 11519 1    
 11521 11521 11536 1    
 11522 11521 11527 1    
 11523 11522 11530 2    
 11524 11523 11537 1    
 11525 11523 11530 am   BACKBONE|DICT|INTERRES
 11526 11523 11524 1    
 11527 11524 11525 ar   
 11528 11524 11529 ar   
 11529 11525 11532 1    
 11530 11525 11526 ar   
 11531 11526 11527 ar   
 11532 11526 11533 1    
 11533 11527 11528 ar   
 11534 11528 11529 ar   
 11535 11528 11534 1    
 11536 11529 11535 1    
 11537 11530 11531 1    
 11538 11531 11539 1    
 11539 11531 11538 1    
 11540 11531 11540 1    
 11541 11541 11556 1    
 11542 11541 11547 1    
 11543 11542 11550 2    
 11544 11543 11544 1    
 11545 11543 11557 1    
 11546 11543 11550 am   BACKBONE|DICT|INTERRES
 11547 11544 11545 ar   
 11548 11544 11549 ar   
 11549 11545 11546 ar   
 11550 11545 11552 1    
 11551 11546 11553 1    
 11552 11546 11547 ar   
 11553 11547 11548 ar   
 11554 11548 11554 1    
 11555 11548 11549 ar   
 11556 11549 11555 1    
 11557 11550 11551 1    
 11558 11551 11559 1    
 11559 11551 11558 1    
 11560 11551 11560 1    
 11561 11561 11576 1    
 11562 11561 11567 1    
 11563 11562 11570 2    
 11564 11563 11564 1    
 11565 11563 11577 1    
 11566 11563 11570 am   BACKBONE|DICT|INTERRES
 11567 11564 11569 ar   
 11568 11564 11565 ar   
 11569 11565 11566 ar   
 11570 11565 11572 1    
 11571 11566 11567 ar   
 11572 11566 11573 1    
 11573 11567 11568 ar   
 11574 11568 11569 ar   
 11575 11568 11574 1    
 11576 11569 11575 1    
 11577 11570 11571 1    
 11578 11571 11578 1    
 11579 11571 11580 1    
 11580 11571 11579 1    
 11581 11581 11587 1    
 11582 11581 11596 1    
 11583 11582 11590 2    
 11584 11583 11590 am   BACKBONE|DICT|INTERRES
 11585 11583 11584 1    
 11586 11583 11597 1    
 11587 11584 11589 ar   
 11588 11584 11585 ar   
 11589 11585 11592 1    
 11590 11585 11586 ar   
 11591 11586 11593 1    
 11592 11586 11587 ar   
 11593 11587 11588 ar   
 11594 11588 11594 1    
 11595 11588 11589 ar   
 11596 11589 11595 1    
 11597 11590 11591 1    
 11598 11591 11598 1    
 11599 11591 11600 1    
 11600 11591 11599 1    
 11601 11601 11616 1    
 11602 11601 11607 1    
 11603 11602 11610 2    
 11604 11603 11617 1    
 11605 11603 11610 am   BACKBONE|DICT|INTERRES
 11606 11603 11604 1    
 11607 11604 11605 ar   
 11608 11604 11609 ar   
 11609 11605 11612 1    
 11610 11605 11606 ar   
 11611 11606 11607 ar   
 11612 11606 11613 1    
 11613 11607 11608 ar   
 11614 11608 11609 ar   
 11615 11608 11614 1    
 11616 11609 11615 1    
 11617 11610 11611 1    
 11618 11611 11619 1    
 11619 11611 11618 1    
 11620 11611 11620 1    
 11621 11621 11636 1    
 11622 11621 11627 1    
 11623 11622 11630 2    
 11624 11623 11624 1    
 11625 11623 11637 1    
 11626 11623 11630 am   BACKBONE|DICT|INTERRES
 11627 11624 11625 ar   
 11628 11624 11629 ar   
 11629 11625 11626 ar   
 11630 11625 11632 1    
 11631 11626 11633 1    
 11632 11626 11627 ar   
 11633 11627 11628 ar   
 11634 11628 11634 1    
 11635 11628 11629 ar   
 11636 11629 11635 1    
 11637 11630 11631 1    
 11638 11631 11639 1    
 11639 11631 11638 1    
 11640 11631 11640 1    
 11641 11641 11656 1    
 11642 11641 11647 1    
 11643 11642 11650 2    
 11644 11643 11644 1    
 11645 11643 11657 1    
 11646 11643 11650 am   BACKBONE|DICT|INTERRES
 11647 11644 11649 ar   
 11648 11644 11645 ar   
 11649 11645 11646 ar   
 11650 11645 11652 1    
 11651 11646 11647 ar   
 11652 11646 11653 1    
 11653 11647 11648 ar   
 11654 11648 11649 ar   
 11655 11648 11654 1    
 11656 11649 11655 1    
 11657 11650 11651 1    
 11658 11651 11658 1    
 11659 11651 11660 1    
 11660 11651 11659 1    
 11661 11661 11667 1    
 11662 11661 11676 1    
 11663 11662 11670 2    
 11664 11663 11670 am   BACKBONE|DICT|INTERRES
 11665 11663 11664 1    
 11666 11663 11677 1    
 11667 11664 11669 ar   
 11668 11664 11665 ar   
 11669 11665 11672 1    
 11670 11665 11666 ar   
 11671 11666 11673 1    
 11672 11666 11667 ar   
 11673 11667 11668 ar   
 11674 11668 11674 1    
 11675 11668 11669 ar   
 11676 11669 11675 1    
 11677 11670 11671 1    
 11678 11671 11678 1    
 11679 11671 11680 1    
 11680 11671 11679 1    
 11681 11681 11696 1    
 11682 11681 11687 1    
 11683 11682 11690 2    
 11684 11683 11697 1    
 11685 11683 11690 am   BACKBONE|DICT|INTERRES
 11686 11683 11684 1    
 11687 11684 11685 ar   
 11688 11684 11689 ar   
 11689 11685 11692 1    
 11690 11685 11686 ar   
 11691 11686 11687 ar   
 11692 11686 11693 1    
 11693 11687 11688 ar   
 11694 11688 11689 ar   
 11695 11688 11694 1    
 11696 11689 11695 1    
 11697 11690 11691 1    
 11698 11691 11699 1    
 11699 11691 11698 1    
 11700 11691 11700 1    
 11701 11701 11716 1    
 11702 11701 11707 1    
 11703 11702 11710 2    
 11704 11703 11704 1    
 11705 11703 11717 1    
 11706 11703 11710 am   BACKBONE|DICT|INTERRES
 11707 11704 11705 ar   
 11708 11704 11709 ar   
 11709 11705 11706 ar   
 11710 11705 11712 1    
 11711 11706 11713 1    
 11712 11706 11707 ar   
 11713 11707 11708 ar   
 11714 11708 11714 1    
 11715 11708 11709 ar   
 11716 11709 11715 1    
 11717 11710 11711 1    
 11718 11711 11719 1    
 11719 11711 11718 1    
 11720 11711 11720 1    
 11721 11721 11736 1    
 11722 11721 11727 1    
 11723 11722 11730 2    
 11724 11723 11724 1    
 11725 11723 11737 1    
 11726 11723 11730 am   BACKBONE|DICT|INTERRES
 11727 11724 11729 ar   
 11728 11724 11725 ar   
 11729 11725 11726 ar   
 11730 11725 11732 1    
 11731 11726 11727 ar   
 11732 11726 11733 1    
 11733 11727 11728 ar   
 11734 11728 11729 ar   
 11735 11728 11734 1    
 11736 11729 11735 1    
 11737 11730 11731 1    
 11738 11731 11738 1    
 11739 11731 11740 1    
 11740 11731 11739 1    
 11741 11741 11747 1    
 11742 11741 11756 1    
 11743 11742 11750 2    
 11744 11743 11750 am   BACKBONE|DICT|INTERRES
 11745 11743 11744 1    
 11746 11743 11757 1    
 11747 11744 11749 ar   
 11748 11744 11745 ar   
 11749 11745 11752 1    
 11750 11745 11746 ar   
 11751 11746 11753 1    
 11752 11746 11747 ar   
 11753 11747 11748 ar   
 11754 11748 11754 1    
 11755 11748 11749 ar   
 11756 11749 11755 1    
 11757 11750 11751 1    
 11758 11751 11758 1    
 11759 11751 11760 1    
 11760 11751 11759 1    
 11761 11761 11776 1    
 11762 11761 11767 1    
 11763 11762 11770 2    
 11764 11763 11777 1    
 11765 11763 11770 am   BACKBONE|DICT|INTERRES
 11766 11763 11764 1    
 11767 11764 11765 ar   
 11768 11764 11769 ar   
 11769 11765 11772 1    
 11770 11765 11766 ar   
 11771 11766 11767 ar   
 11772 11766 11773 1    
 11773 11767 11768 ar   
 11774 11768 11769 ar   
 11775 11768 11774 1    
 11776 11769 11775 1    
 11777 11770 11771 1    
 11778 11771 11779 1    
 11779 11771 11778 1    
 11780 11771 11780 1    
 11781 11781 11796 1    
 11782 11781 11787 1    
 11783 11782 11790 2    
 11784 11783 11784 1    
 11785 11783 11797 1    
 11786 11783 11790 am   BACKBONE|DICT|INTERRES
 11787 11784 11785 ar   
 11788 11784 11789 ar   
 11789 11785 11786 ar   
 11790 11785 11792 1    
 11791 11786 11793 1    
 11792 11786 11787 ar   
 11793 11787 11788 ar   
 11794 11788 11794 1    
 11795 11788 11789 ar   
 11796 11789 11795 1    
 11797 11790 11791 1    
 11798 11791 11799 1    
 11799 11791 11798 1    
 11800 11791 11800 1    
 11801 11801 11816 1    
 11802 11801 11807 1    
 11803 11802 11810 2    
 11804 11803 11804 1    
 11805 11803 11817 1    
 11806 11803 11810 am   BACKBONE|DICT|INTERRES
 11807 11804 11809 ar   
 11808 11804 11805 ar   
 11809 11805 11806 ar   
 11810 11805 11812 1    
 11811 11806 11807 ar   
 11812 11806 11813 1    
 11813 11807 11808 ar   
 11814 11808 11809 ar   
 11815 11808 11814 1    
 11816 11809 11815 1    
 11817 11810 11811 1    
 11818 11811 11818 1    
 11819 11811 11820 1    
 11820 11811 11819 1    
 11821 11821 11827 1    
 11822 11821 11836 1    
 11823 11822 11830 2    
 11824 11823 11830 am   BACKBONE|DICT|INTERRES
 11825 11823 11824 1    
 11826 11823 11837 1    
 11827 11824 11829 ar   
 11828 11824 11825 ar   
 11829 11825 11832 1    
 11830 11825 11826 ar   
 11831 11826 11833 1    
 11832 11826 11827 ar   
 11833 11827 11828 ar   
 11834 11828 11834 1    
 11835 11828 11829 ar   
 11836 11829 11835 1    
 11837 11830 11831 1    
 11838 11831 11838 1    
 11839 11831 11840 1    
 11840 11831 11839 1    
 11841 11841 11856 1    
 11842 11841 11847 1    
 11843 11842 11850 2    
 11844 11843 11857 1    
 11845 11843 11850 am   BACKBONE|DICT|INTERRES
 11846 11843 11844 1    
 11847 11844 11845 ar   
 11848 11844 11849 ar   
 11849 11845 11852 1    
 11850 11845 11846 ar   
 11851 11846 11847 ar   
 11852 11846 11853 1    
 11853 11847 11848 ar   
 11854 11848 11849 ar   
 11855 11848 11854 1    
 11856 11849 11855 1    
 11857 11850 11851 1    
 11858 11851 11859 1    
 11859 11851 11858 1    
 11860 11851 11860 1    
 11861 11861 11876 1    
 11862 11861 11867 1    
 11863 11862 11870 2    
 11864 11863 11864 1    
 11865 11863 11877 1    
 11866 11863 11870 am   BACKBONE|DICT|INTERRES
 11867 11864 11865 ar   
 11868 11864 11869 ar   
 11869 11865 11866 ar   
 11870 11865 11872 1    
 11871 11866 11873 1    
 11872 11866 11867 ar   
 11873 11867 11868 ar   
 11874 11868 11874 1    
 11875 11868 11869 ar   
 11876 11869 11875 1    
 11877 11870 11871 1    
 11878 11871 11879 1    
 11879 11871 11878 1    
 11880 11871 11880 1    
 11881 11881 11896 1    
 11882 11881 11887 1    
 11883 11882 11890 2    
 11884 11883 11884 1    
 11885 11883 11897 1    
 11886 11883 11890 am   BACKBONE|DICT|INTERRES
 11887 11884 11889 ar   
 11888 11884 11885 ar   
 11889 11885 11886 ar   
 11890 11885 11892 1    
 11891 11886 11887 ar   
 11892 11886 11893 1    
 11893 11887 11888 ar   
 11894 11888 11889 ar   
 11895 11888 11894 1    
 11896 11889 11895 1    
 11897 11890 11891 1    
 11898 11891 11898 1    
 11899 11891 11900 1    
 11900 11891 11899 1    
 11901 11901 11907 1    
 11902 11901 11916 1    
 11903 11902 11910 2    
 11904 11903 11910 am   BACKBONE|DICT|INTERRES
 11905 11903 11904 1    
 11906 11903 11917 1    
 11907 11904 11909 ar   
 11908 11904 11905 ar   
 11909 11905 11912 1    
 11910 11905 11906 ar   
 11911 11906 11913 1    
 11912 11906 11907 ar   
 11913 11907 11908 ar   
 11914 11908 11914 1    
 11915 11908 11909 ar   
 11916 11909 11915 1    
 11917 11910 11911 1    
 11918 11911 11918 1    
 11919 11911 11920 1    
 11920 11911 11919 1    
 11921 11921 11936 1    
 11922 11921 11927 1    
 11923 11922 11930 2    
 11924 11923 11937 1    
 11925 11923 11930 am   BACKBONE|DICT|INTERRES
 11926 11923 11924 1    
 11927 11924 11925 ar   
 11928 11924 11929 ar   
 11929 11925 11932 1    
 11930 11925 11926 ar   
 11931 11926 11927 ar   
 11932 11926 11933 1    
 11933 11927 11928 ar   
 11934 11928 11929 ar   
 11935 11928 11934 1    
 11936 11929 11935 1    
 11937 11930 11931 1    
 11938 11931 11939 1    
 11939 11931 11938 1    
 11940 11931 11940 1    
 11941 11941 11956 1    
 11942 11941 11947 1    
 11943 11942 11950 2    
 11944 11943 11944 1    
 11945 11943 11957 1    
 11946 11943 11950 am   BACKBONE|DICT|INTERRES
 11947 11944 11945 ar   
 11948 11944 11949 ar   
 11949 11945 11946 ar   
 11950 11945 11952 1    
 11951 11946 11953 1    
 11952 11946 11947 ar   
 11953 11947 11948 ar   
 11954 11948 11954 1    
 11955 11948 11949 ar   
 11956 11949 11955 1    
 11957 11950 11951 1    
 11958 11951 11959 1    
 11959 11951 11958 1    
 11960 11951 11960 1    
 11961 11961 11976 1    
 11962 11961 11967 1    
 11963 11962 11970 2    
 11964 11963 11964 1    
 11965 11963 11977 1    
 11966 11963 11970 am   BACKBONE|DICT|INTERRES
 11967 11964 11969 ar   
 11968 11964 11965 ar   
 11969 11965 11966 ar   
 11970 11965 11972 1    
 11971 11966 11967 ar   
 11972 11966 11973 1    
 11973 11967 11968 ar   
 11974 11968 11969 ar   
 11975 11968 11974 1    
 11976 11969 11975 1    
 11977 11970 11971 1    
 11978 11971 11978 1    
 11979 11971 11980 1    
 11980 11971 11979 1    
 11981 11981 11987 1    
 11982 11981 11996 1    
 11983 11982 11990 2    
 11984 11983 11990 am   BACKBONE|DICT|INTERRES
 11985 11983 11984 1    
 11986 11983 11997 1    
 11987 11984 11989 ar   
 11988 11984 11985 ar   
 11989 11985 11992 1    
 11990 11985 11986 ar   
 11991 11986 11993 1    
 11992 11986 11987 ar   
 11993 11987 11988 ar   
 11994 11988 11994 1    
 11995 11988 11989 ar   
 11996 11989 11995 1    
 11997 11990 11991 1    
 11998 11991 11998 1    
 11999 11991 12000 1    
 12000 11991 11999 1    
 12001 12001 12016 1    
 12002 12001 12007 1    
 12003 12002 12010 2    
 12004 12003 12017 1    
 12005 12003 12010 am   BACKBONE|DICT|INTERRES
 12006 12003 12004 1    
 12007 12004 12005 ar   
 12008 12004 12009 ar   
 12009 12005 12012 1    
 12010 12005 12006 ar   
 12011 12006 12007 ar   
 12012 12006 12013 1    
 12013 12007 12008 ar   
 12014 12008 12009 ar   
 12015 12008 12014 1    
 12016 12009 12015 1    
 12017 12010 12011 1    
 12018 12011 12019 1    
 12019 12011 12018 1    
 12020 12011 12020 1    
 12021 12021 12036 1    
 12022 12021 12027 1    
 12023 12022 12030 2    
 12024 12023 12024 1    
 12025 12023 12037 1    
 12026 12023 12030 am   BACKBONE|DICT|INTERRES
 12027 12024 12025 ar   
 12028 12024 12029 ar   
 12029 12025 12026 ar   
 12030 12025 12032 1    
 12031 12026 12033 1    
 12032 12026 12027 ar   
 12033 12027 12028 ar   
 12034 12028 12034 1    
 12035 12028 12029 ar   
 12036 12029 12035 1    
 12037 12030 12031 1    
 12038 12031 12039 1    
 12039 12031 12038 1    
 12040 12031 12040 1    
 12041 12041 12056 1    
 12042 12041 12047 1    
 12043 12042 12050 2    
 12044 12043 12044 1    
 12045 12043 12057 1    
 12046 12043 12050 am   BACKBONE|DICT|INTERRES
 12047 12044 12049 ar   
 12048 12044 12045 ar   
 12049 12045 12046 ar   
 12050 12045 12052 1    
 12051 12046 12047 ar   
 12052 12046 12053 1    
 12053 12047 12048 ar   
 12054 12048 12049 ar   
 12055 12048 12054 1    
 12056 12049 12055 1    
 12057 12050 12051 1    
 12058 12051 12058 1    
 12059 12051 12060 1    
 12060 12051 12059 1    
 12061 12061 12067 1    
 12062 12061 12076 1    
 12063 12062 12070 2    
 12064 12063 12070 am   BACKBONE|DICT|INTERRES
 12065 12063 12064 1    
 12066 12063 12077 1    
 12067 12064 12069 ar   
 12068 12064 12065 ar   
 12069 12065 12072 1    
 12070 12065 12066 ar   
 12071 12066 12073 1    
 12072 12066 12067 ar   
 12073 12067 12068 ar   
 12074 12068 12074 1    
 12075 12068 12069 ar   
 12076 12069 12075 1    
 12077 12070 12071 1    
 12078 12071 12078 1    
 12079 12071 12080 1    
 12080 12071 12079 1    
 12081 12081 12096 1    
 12082 12081 12087 1    
 12083 12082 12090 2    
 12084 12083 12097 1    
 12085 12083 12090 am   BACKBONE|DICT|INTERRES
 12086 12083 12084 1    
 12087 12084 12085 ar   
 12088 12084 12089 ar   
 12089 12085 12092 1    
 12090 12085 12086 ar   
 12091 12086 12087 ar   
 12092 12086 12093 1    
 12093 12087 12088 ar   
 12094 12088 12089 ar   
 12095 12088 12094 1    
 12096 12089 12095 1    
 12097 12090 12091 1    
 12098 12091 12099 1    
 12099 12091 12098 1    
 12100 12091 12100 1    
 12101 12101 12116 1    
 12102 12101 12107 1    
 12103 12102 12110 2    
 12104 12103 12104 1    
 12105 12103 12117 1    
 12106 12103 12110 am   BACKBONE|DICT|INTERRES
 12107 12104 12105 ar   
 12108 12104 12109 ar   
 12109 12105 12106 ar   
 12110 12105 12112 1    
 12111 12106 12113 1    
 12112 12106 12107 ar   
 12113 12107 12108 ar   
 12114 12108 12114 1    
 12115 12108 12109 ar   
 12116 12109 12115 1    
 12117 12110 12111 1    
 12118 12111 12119 1    
 12119 12111 12118 1    
 12120 12111 12120 1    
 12121 12121 12136 1    
 12122 12121 12127 1    
 12123 12122 12130 2    
 12124 12123 12124 1    
 12125 12123 12137 1    
 12126 12123 12130 am   BACKBONE|DICT|INTERRES
 12127 12124 12129 ar   
 12128 12124 12125 ar   
 12129 12125 12126 ar   
 12130 12125 12132 1    
 12131 12126 12127 ar   
 12132 12126 12133 1    
 12133 12127 12128 ar   
 12134 12128 12129 ar   
 12135 12128 12134 1    
 12136 12129 12135 1    
 12137 12130 12131 1    
 12138 12131 12138 1    
 12139 12131 12140 1    
 12140 12131 12139 1    
 12141 12141 12147 1    
 12142 12141 12156 1    
 12143 12142 12150 2    
 12144 12143 12150 am   BACKBONE|DICT|INTERRES
 12145 12143 12144 1    
 12146 12143 12157 1    
 12147 12144 12149 ar   
 12148 12144 12145 ar   
 12149 12145 12152 1    
 12150 12145 12146 ar   
 12151 12146 12153 1    
 12152 12146 12147 ar   
 12153 12147 12148 ar   
 12154 12148 12154 1    
 12155 12148 12149 ar   
 12156 12149 12155 1    
 12157 12150 12151 1    
 12158 12151 12158 1    
 12159 12151 12160 1    
 12160 12151 12159 1    
 12161 12161 12176 1    
 12162 12161 12167 1    
 12163 12162 12170 2    
 12164 12163 12177 1    
 12165 12163 12170 am   BACKBONE|DICT|INTERRES
 12166 12163 12164 1    
 12167 12164 12165 ar   
 12168 12164 12169 ar   
 12169 12165 12172 1    
 12170 12165 12166 ar   
 12171 12166 12167 ar   
 12172 12166 12173 1    
 12173 12167 12168 ar   
 12174 12168 12169 ar   
 12175 12168 12174 1    
 12176 12169 12175 1    
 12177 12170 12171 1    
 12178 12171 12179 1    
 12179 12171 12178 1    
 12180 12171 12180 1    
 12181 12181 12196 1    
 12182 12181 12187 1    
 12183 12182 12190 2    
 12184 12183 12184 1    
 12185 12183 12197 1    
 12186 12183 12190 am   BACKBONE|DICT|INTERRES
 12187 12184 12185 ar   
 12188 12184 12189 ar   
 12189 12185 12186 ar   
 12190 12185 12192 1    
 12191 12186 12193 1    
 12192 12186 12187 ar   
 12193 12187 12188 ar   
 12194 12188 12194 1    
 12195 12188 12189 ar   
 12196 12189 12195 1    
 12197 12190 12191 1    
 12198 12191 12199 1    
 12199 12191 12198 1    
 12200 12191 12200 1    
 12201 12201 12216 1    
 12202 12201 12207 1    
 12203 12202 12210 2    
 12204 12203 12204 1    
 12205 12203 12217 1    
 12206 12203 12210 am   BACKBONE|DICT|INTERRES
 12207 12204 12209 ar   
 12208 12204 12205 ar   
 12209 12205 12206 ar   
 12210 12205 12212 1    
 12211 12206 12207 ar   
 12212 12206 12213 1    
 12213 12207 12208 ar   
 12214 12208 12209 ar   
 12215 12208 12214 1    
 12216 12209 12215 1    
 12217 12210 12211 1    
 12218 12211 12218 1    
 12219 12211 12220 1    
 12220 12211 12219 1    
 12221 12221 12227 1    
 12222 12221 12236 1    
 12223 12222 12230 2    
 12224 12223 12230 am   BACKBONE|DICT|INTERRES
 12225 12223 12224 1    
 12226 12223 12237 1    
 12227 12224 12229 ar   
 12228 12224 12225 ar   
 12229 12225 12232 1    
 12230 12225 12226 ar   
 12231 12226 12233 1    
 12232 12226 12227 ar   
 12233 12227 12228 ar   
 12234 12228 12234 1    
 12235 12228 12229 ar   
 12236 12229 12235 1    
 12237 12230 12231 1    
 12238 12231 12238 1    
 12239 12231 12240 1    
 12240 12231 12239 1    
 12241 12241 12256 1    
 12242 12241 12247 1    
 12243 12242 12250 2    
 12244 12243 12257 1    
 12245 12243 12250 am   BACKBONE|DICT|INTERRES
 12246 12243 12244 1    
 12247 12244 12245 ar   
 12248 12244 12249 ar   
 12249 12245 12252 1    
 12250 12245 12246 ar   
 12251 12246 12247 ar   
 12252 12246 12253 1    
 12253 12247 12248 ar   
 12254 12248 12249 ar   
 12255 12248 12254 1    
 12256 12249 12255 1    
 12257 12250 12251 1    
 12258 12251 12259 1    
 12259 12251 12258 1    
 12260 12251 12260 1    
 12261 12261 12276 1    
 12262 12261 12267 1    
 12263 12262 12270 2    
 12264 12263 12264 1    
 12265 12263 12277 1    
 12266 12263 12270 am   BACKBONE|DICT|INTERRES
 12267 12264 12265 ar   
 12268 12264 12269 ar   
 12269 12265 12266 ar   
 12270 12265 12272 1    
 12271 12266 12273 1    
 12272 12266 12267 ar   
 12273 12267 12268 ar   
 12274 12268 12274 1    
 12275 12268 12269 ar   
 12276 12269 12275 1    
 12277 12270 12271 1    
 12278 12271 12279 1    
 12279 12271 12278 1    
 12280 12271 12280 1    
 12281 12281 12296 1    
 12282 12281 12287 1    
 12283 12282 12290 2    
 12284 12283 12284 1    
 12285 12283 12297 1    
 12286 12283 12290 am   BACKBONE|DICT|INTERRES
 12287 12284 12289 ar   
 12288 12284 12285 ar   
 12289 12285 12286 ar   
 12290 12285 12292 1    
 12291 12286 12287 ar   
 12292 12286 12293 1    
 12293 12287 12288 ar   
 12294 12288 12289 ar   
 12295 12288 12294 1    
 12296 12289 12295 1    
 12297 12290 12291 1    
 12298 12291 12298 1    
 12299 12291 12300 1    
 12300 12291 12299 1    
 12301 12301 12307 1    
 12302 12301 12316 1    
 12303 12302 12310 2    
 12304 12303 12310 am   BACKBONE|DICT|INTERRES
 12305 12303 12304 1    
 12306 12303 12317 1    
 12307 12304 12309 ar   
 12308 12304 12305 ar   
 12309 12305 12312 1    
 12310 12305 12306 ar   
 12311 12306 12313 1    
 12312 12306 12307 ar   
 12313 12307 12308 ar   
 12314 12308 12314 1    
 12315 12308 12309 ar   
 12316 12309 12315 1    
 12317 12310 12311 1    
 12318 12311 12318 1    
 12319 12311 12320 1    
 12320 12311 12319 1    
 12321 12321 12336 1    
 12322 12321 12327 1    
 12323 12322 12330 2    
 12324 12323 12337 1    
 12325 12323 12330 am   BACKBONE|DICT|INTERRES
 12326 12323 12324 1    
 12327 12324 12325 ar   
 12328 12324 12329 ar   
 12329 12325 12332 1    
 12330 12325 12326 ar   
 12331 12326 12327 ar   
 12332 12326 12333 1    
 12333 12327 12328 ar   
 12334 12328 12329 ar   
 12335 12328 12334 1    
 12336 12329 12335 1    
 12337 12330 12331 1    
 12338 12331 12339 1    
 12339 12331 12338 1    
 12340 12331 12340 1    
 12341 12341 12356 1    
 12342 12341 12347 1    
 12343 12342 12350 2    
 12344 12343 12344 1    
 12345 12343 12357 1    
 12346 12343 12350 am   BACKBONE|DICT|INTERRES
 12347 12344 12345 ar   
 12348 12344 12349 ar   
 12349 12345 12346 ar   
 12350 12345 12352 1    
 12351 12346 12353 1    
 12352 12346 12347 ar   
 12353 12347 12348 ar   
 12354 12348 12354 1    
 12355 12348 12349 ar   
 12356 12349 12355 1    
 12357 12350 12351 1    
 12358 12351 12359 1    
 12359 12351 12358 1    
 12360 12351 12360 1    
 12361 12361 12376 1    
 12362 12361 12367 1    
 12363 12362 12370 2    
 12364 12363 12364 1    
 12365 12363 12377 1    
 12366 12363 12370 am   BACKBONE|DICT|INTERRES
 12367 12364 12369 ar   
 12368 12364 12365 ar   
 12369 12365 12366 ar   
 12370 12365 12372 1    
 12371 12366 12367 ar   
 12372 12366 12373 1    
 12373 12367 12368 ar   
 12374 12368 12369 ar   
 12375 12368 12374 1    
 12376 12369 12375 1    
 12377 12370 12371 1    
 12378 12371 12378 1    
 12379 12371 12380 1    
 12380 12371 12379 1    
 12381 12381 12387 1    
 12382 12381 12396 1    
 12383 12382 12390 2    
 12384 12383 12390 am   BACKBONE|DICT|INTERRES
 12385 12383 12384 1    
 12386 12383 12397 1    
 12387 12384 12389 ar   
 12388 12384 12385 ar   
 12389 12385 12392 1    
 12390 12385 12386 ar   
 12391 12386 12393 1    
 12392 12386 12387 ar   
 12393 12387 12388 ar   
 12394 12388 12394 1    
 12395 12388 12389 ar   
 12396 12389 12395 1    
 12397 12390 12391 1    
 12398 12391 12398 1    
 12399 12391 12400 1    
 12400 12391 12399 1    
 12401 12401 12416 1    
 12402 12401 12407 1    
 12403 12402 12410 2    
 12404 12403 12417 1    
 12405 12403 12410 am   BACKBONE|DICT|INTERRES
 12406 12403 12404 1    
 12407 12404 12405 ar   
 12408 12404 12409 ar   
 12409 12405 12412 1    
 12410 12405 12406 ar   
 12411 12406 12407 ar   
 12412 12406 12413 1    
 12413 12407 12408 ar   
 12414 12408 12409 ar   
 12415 12408 12414 1    
 12416 12409 12415 1    
 12417 12410 12411 1    
 12418 12411 12419 1    
 12419 12411 12418 1    
 12420 12411 12420 1    
 12421 12421 12436 1    
 12422 12421 12427 1    
 12423 12422 12430 2    
 12424 12423 12424 1    
 12425 12423 12437 1    
 12426 12423 12430 am   BACKBONE|DICT|INTERRES
 12427 12424 12425 ar   
 12428 12424 12429 ar   
 12429 12425 12426 ar   
 12430 12425 12432 1    
 12431 12426 12433 1    
 12432 12426 12427 ar   
 12433 12427 12428 ar   
 12434 12428 12434 1    
 12435 12428 12429 ar   
 12436 12429 12435 1    
 12437 12430 12431 1    
 12438 12431 12439 1    
 12439 12431 12438 1    
 12440 12431 12440 1    
 12441 12441 12456 1    
 12442 12441 12447 1    
 12443 12442 12450 2    
 12444 12443 12444 1    
 12445 12443 12457 1    
 12446 12443 12450 am   BACKBONE|DICT|INTERRES
 12447 12444 12449 ar   
 12448 12444 12445 ar   
 12449 12445 12446 ar   
 12450 12445 12452 1    
 12451 12446 12447 ar   
 12452 12446 12453 1    
 12453 12447 12448 ar   
 12454 12448 12449 ar   
 12455 12448 12454 1    
 12456 12449 12455 1    
 12457 12450 12451 1    
 12458 12451 12458 1    
 12459 12451 12460 1    
 12460 12451 12459 1    
 12461 12461 12467 1    
 12462 12461 12476 1    
 12463 12462 12470 2    
 12464 12463 12470 am   BACKBONE|DICT|INTERRES
 12465 12463 12464 1    
 12466 12463 12477 1    
 12467 12464 12469 ar   
 12468 12464 12465 ar   
 12469 12465 12472 1    
 12470 12465 12466 ar   
 12471 12466 12473 1    
 12472 12466 12467 ar   
 12473 12467 12468 ar   
 12474 12468 12474 1    
 12475 12468 12469 ar   
 12476 12469 12475 1    
 12477 12470 12471 1    
 12478 12471 12478 1    
 12479 12471 12480 1    
 12480 12471 12479 1    
 12481 12481 12496 1    
 12482 12481 12487 1    
 12483 12482 12490 2    
 12484 12483 12497 1    
 12485 12483 12490 am   BACKBONE|DICT|INTERRES
 12486 12483 12484 1    
 12487 12484 12485 ar   
 12488 12484 12489 ar   
 12489 12485 12492 1    
 12490 12485 12486 ar   
 12491 12486 12487 ar   
 12492 12486 12493 1    
 12493 12487 12488 ar   
 12494 12488 12489 ar   
 12495 12488 12494 1    
 12496 12489 12495 1    
 12497 12490 12491 1    
 12498 12491 12499 1    
 12499 12491 12498 1    
 12500 12491 12500 1    
 12501 12501 12516 1    
 12502 12501 12507 1    
 12503 12502 12510 2    
 12504 12503 12504 1    
 12505 12503 12517 1    
 12506 12503 12510 am   BACKBONE|DICT|INTERRES
 12507 12504 12505 ar   
 12508 12504 12509 ar   
 12509 12505 12506 ar   
 12510 12505 12512 1    
 12511 12506 12513 1    
 12512 12506 12507 ar   
 12513 12507 12508 ar   
 12514 12508 12514 1    
 12515 12508 12509 ar   
 12516 12509 12515 1    
 12517 12510 12511 1    
 12518 12511 12519 1    
 12519 12511 12518 1    
 12520 12511 12520 1    
 12521 12521 12536 1    
 12522 12521 12527 1    
 12523 12522 12530 2    
 12524 12523 12524 1    
 12525 12523 12537 1    
 12526 12523 12530 am   BACKBONE|DICT|INTERRES
 12527 12524 12529 ar   
 12528 12524 12525 ar   
 12529 12525 12526 ar   
 12530 12525 12532 1    
 12531 12526 12527 ar   
 12532 12526 12533 1    
 12533 12527 12528 ar   
 12534 12528 12529 ar   
 12535 12528 12534 1    
 12536 12529 12535 1    
 12537 12530 12531 1    
 12538 12531 12538 1    
 12539 12531 12540 1    
 12540 12531 12539 1    
 12541 12541 12547 1    
 12542 12541 12556 1    
 12543 12542 12550 2    
 12544 12543 12550 am   BACKBONE|DICT|INTERRES
 12545 12543 12544 1    
 12546 12543 12557 1    
 12547 12544 12549 ar   
 12548 12544 12545 ar   
 12549 12545 12552 1    
 12550 12545 12546 ar   
 12551 12546 12553 1    
 12552 12546 12547 ar   
 12553 12547 12548 ar   
 12554 12548 12554 1    
 12555 12548 12549 ar   
 12556 12549 12555 1    
 12557 12550 12551 1    
 12558 12551 12558 1    
 12559 12551 12560 1    
 12560 12551 12559 1    
 12561 12561 12576 1    
 12562 12561 12567 1    
 12563 12562 12570 2    
 12564 12563 12577 1    
 12565 12563 12570 am   BACKBONE|DICT|INTERRES
 12566 12563 12564 1    
 12567 12564 12565 ar   
 12568 12564 12569 ar   
 12569 12565 12572 1    
 12570 12565 12566 ar   
 12571 12566 12567 ar   
 12572 12566 12573 1    
 12573 12567 12568 ar   
 12574 12568 12569 ar   
 12575 12568 12574 1    
 12576 12569 12575 1    
 12577 12570 12571 1    
 12578 12571 12579 1    
 12579 12571 12578 1    
 12580 12571 12580 1    
 12581 12581 12596 1    
 12582 12581 12587 1    
 12583 12582 12590 2    
 12584 12583 12584 1    
 12585 12583 12597 1    
 12586 12583 12590 am   BACKBONE|DICT|INTERRES
 12587 12584 12585 ar   
 12588 12584 12589 ar   
 12589 12585 12586 ar   
 12590 12585 12592 1    
 12591 12586 12593 1    
 12592 12586 12587 ar   
 12593 12587 12588 ar   
 12594 12588 12594 1    
 12595 12588 12589 ar   
 12596 12589 12595 1    
 12597 12590 12591 1    
 12598 12591 12599 1    
 12599 12591 12598 1    
 12600 12591 12600 1    
 12601 12601 12616 1    
 12602 12601 12607 1    
 12603 12602 12610 2    
 12604 12603 12604 1    
 12605 12603 12617 1    
 12606 12603 12610 am   BACKBONE|DICT|INTERRES
 12607 12604 12609 ar   
 12608 12604 12605 ar   
 12609 12605 12606 ar   
 12610 12605 12612 1    
 12611 12606 12607 ar   
 12612 12606 12613 1    
 12613 12607 12608 ar   
 12614 12608 12609 ar   
 12615 12608 12614 1    
 12616 12609 12615 1    
 12617 12610 12611 1    
 12618 12611 12618 1    
 12619 12611 12620 1    
 12620 12611 12619 1    
 12621 12621 12627 1    
 12622 12621 12636 1    
 12623 12622 12630 2    
 12624 12623 12630 am   BACKBONE|DICT|INTERRES
 12625 12623 12624 1    
 12626 12623 12637 1    
 12627 12624 12629 ar   
 12628 12624 12625 ar   
 12629 12625 12632 1    
 12630 12625 12626 ar   
 12631 12626 12633 1    
 12632 12626 12627 ar   
 12633 12627 12628 ar   
 12634 12628 12634 1    
 12635 12628 12629 ar   
 12636 12629 12635 1    
 12637 12630 12631 1    
 12638 12631 12638 1    
 12639 12631 12640 1    
 12640 12631 12639 1    
 12641 12641 12656 1    
 12642 12641 12647 1    
 12643 12642 12650 2    
 12644 12643 12657 1    
 12645 12643 12650 am   BACKBONE|DICT|INTERRES
 12646 12643 12644 1    
 12647 12644 12645 ar   
 12648 12644 12649 ar   
 12649 12645 12652 1    
 12650 12645 12646 ar   
 12651 12646 12647 ar   
 12652 12646 12653 1    
 12653 12647 12648 ar   
 12654 12648 12649 ar   
 12655 12648 12654 1    
 12656 12649 12655 1    
 12657 12650 12651 1    
 12658 12651 12659 1    
 12659 12651 12658 1    
 12660 12651 12660 1    
 12661 12661 12676 1    
 12662 12661 12667 1    
 12663 12662 12670 2    
 12664 12663 12664 1    
 12665 12663 12677 1    
 12666 12663 12670 am   BACKBONE|DICT|INTERRES
 12667 12664 12665 ar   
 12668 12664 12669 ar   
 12669 12665 12666 ar   
 12670 12665 12672 1    
 12671 12666 12673 1    
 12672 12666 12667 ar   
 12673 12667 12668 ar   
 12674 12668 12674 1    
 12675 12668 12669 ar   
 12676 12669 12675 1    
 12677 12670 12671 1    
 12678 12671 12679 1    
 12679 12671 12678 1    
 12680 12671 12680 1    
 12681 12681 12696 1    
 12682 12681 12687 1    
 12683 12682 12690 2    
 12684 12683 12684 1    
 12685 12683 12697 1    
 12686 12683 12690 am   BACKBONE|DICT|INTERRES
 12687 12684 12689 ar   
 12688 12684 12685 ar   
 12689 12685 12686 ar   
 12690 12685 12692 1    
 12691 12686 12687 ar   
 12692 12686 12693 1    
 12693 12687 12688 ar   
 12694 12688 12689 ar   
 12695 12688 12694 1    
 12696 12689 12695 1    
 12697 12690 12691 1    
 12698 12691 12698 1    
 12699 12691 12700 1    
 12700 12691 12699 1    
 12701 12701 12707 1    
 12702 12701 12716 1    
 12703 12702 12710 2    
 12704 12703 12710 am   BACKBONE|DICT|INTERRES
 12705 12703 12704 1    
 12706 12703 12717 1    
 12707 12704 12709 ar   
 12708 12704 12705 ar   
 12709 12705 12712 1    
 12710 12705 12706 ar   
 12711 12706 12713 1    
 12712 12706 12707 ar   
 12713 12707 12708 ar   
 12714 12708 12714 1    
 12715 12708 12709 ar   
 12716 12709 12715 1    
 12717 12710 12711 1    
 12718 12711 12718 1    
 12719 12711 12720 1    
 12720 12711 12719 1    
 12721 12721 12736 1    
 12722 12721 12727 1    
 12723 12722 12730 2    
 12724 12723 12737 1    
 12725 12723 12730 am   BACKBONE|DICT|INTERRES
 12726 12723 12724 1    
 12727 12724 12725 ar   
 12728 12724 12729 ar   
 12729 12725 12732 1    
 12730 12725 12726 ar   
 12731 12726 12727 ar   
 12732 12726 12733 1    
 12733 12727 12728 ar   
 12734 12728 12729 ar   
 12735 12728 12734 1    
 12736 12729 12735 1    
 12737 12730 12731 1    
 12738 12731 12739 1    
 12739 12731 12738 1    
 12740 12731 12740 1    
 12741 12741 12756 1    
 12742 12741 12747 1    
 12743 12742 12750 2    
 12744 12743 12744 1    
 12745 12743 12757 1    
 12746 12743 12750 am   BACKBONE|DICT|INTERRES
 12747 12744 12745 ar   
 12748 12744 12749 ar   
 12749 12745 12746 ar   
 12750 12745 12752 1    
 12751 12746 12753 1    
 12752 12746 12747 ar   
 12753 12747 12748 ar   
 12754 12748 12754 1    
 12755 12748 12749 ar   
 12756 12749 12755 1    
 12757 12750 12751 1    
 12758 12751 12759 1    
 12759 12751 12758 1    
 12760 12751 12760 1    
 12761 12761 12776 1    
 12762 12761 12767 1    
 12763 12762 12770 2    
 12764 12763 12764 1    
 12765 12763 12777 1    
 12766 12763 12770 am   BACKBONE|DICT|INTERRES
 12767 12764 12769 ar   
 12768 12764 12765 ar   
 12769 12765 12766 ar   
 12770 12765 12772 1    
 12771 12766 12767 ar   
 12772 12766 12773 1    
 12773 12767 12768 ar   
 12774 12768 12769 ar   
 12775 12768 12774 1    
 12776 12769 12775 1    
 12777 12770 12771 1    
 12778 12771 12778 1    
 12779 12771 12780 1    
 12780 12771 12779 1    
 12781 12781 12787 1    
 12782 12781 12796 1    
 12783 12782 12790 2    
 12784 12783 12790 am   BACKBONE|DICT|INTERRES
 12785 12783 12784 1    
 12786 12783 12797 1    
 12787 12784 12789 ar   
 12788 12784 12785 ar   
 12789 12785 12792 1    
 12790 12785 12786 ar   
 12791 12786 12793 1    
 12792 12786 12787 ar   
 12793 12787 12788 ar   
 12794 12788 12794 1    
 12795 12788 12789 ar   
 12796 12789 12795 1    
 12797 12790 12791 1    
 12798 12791 12798 1    
 12799 12791 12800 1    
 12800 12791 12799 1    
 12801 12801 12816 1    
 12802 12801 12807 1    
 12803 12802 12810 2    
 12804 12803 12817 1    
 12805 12803 12810 am   BACKBONE|DICT|INTERRES
 12806 12803 12804 1    
 12807 12804 12805 ar   
 12808 12804 12809 ar   
 12809 12805 12812 1    
 12810 12805 12806 ar   
 12811 12806 12807 ar   
 12812 12806 12813 1    
 12813 12807 12808 ar   
 12814 12808 12809 ar   
 12815 12808 12814 1    
 12816 12809 12815 1    
 12817 12810 12811 1    
 12818 12811 12819 1    
 12819 12811 12818 1    
 12820 12811 12820 1    
 12821 12821 12836 1    
 12822 12821 12827 1    
 12823 12822 12830 2    
 12824 12823 12824 1    
 12825 12823 12837 1    
 12826 12823 12830 am   BACKBONE|DICT|INTERRES
 12827 12824 12825 ar   
 12828 12824 12829 ar   
 12829 12825 12826 ar   
 12830 12825 12832 1    
 12831 12826 12833 1    
 12832 12826 12827 ar   
 12833 12827 12828 ar   
 12834 12828 12834 1    
 12835 12828 12829 ar   
 12836 12829 12835 1    
 12837 12830 12831 1    
 12838 12831 12839 1    
 12839 12831 12838 1    
 12840 12831 12840 1    
 12841 12841 12856 1    
 12842 12841 12847 1    
 12843 12842 12850 2    
 12844 12843 12844 1    
 12845 12843 12857 1    
 12846 12843 12850 am   BACKBONE|DICT|INTERRES
 12847 12844 12849 ar   
 12848 12844 12845 ar   
 12849 12845 12846 ar   
 12850 12845 12852 1    
 12851 12846 12847 ar   
 12852 12846 12853 1    
 12853 12847 12848 ar   
 12854 12848 12849 ar   
 12855 12848 12854 1    
 12856 12849 12855 1    
 12857 12850 12851 1    
 12858 12851 12858 1    
 12859 12851 12860 1    
 12860 12851 12859 1    
 12861 12861 12867 1    
 12862 12861 12876 1    
 12863 12862 12870 2    
 12864 12863 12870 am   BACKBONE|DICT|INTERRES
 12865 12863 12864 1    
 12866 12863 12877 1    
 12867 12864 12869 ar   
 12868 12864 12865 ar   
 12869 12865 12872 1    
 12870 12865 12866 ar   
 12871 12866 12873 1    
 12872 12866 12867 ar   
 12873 12867 12868 ar   
 12874 12868 12874 1    
 12875 12868 12869 ar   
 12876 12869 12875 1    
 12877 12870 12871 1    
 12878 12871 12878 1    
 12879 12871 12880 1    
 12880 12871 12879 1    
 12881 12881 12896 1    
 12882 12881 12887 1    
 12883 12882 12890 2    
 12884 12883 12897 1    
 12885 12883 12890 am   BACKBONE|DICT|INTERRES
 12886 12883 12884 1    
 12887 12884 12885 ar   
 12888 12884 12889 ar   
 12889 12885 12892 1    
 12890 12885 12886 ar   
 12891 12886 12887 ar   
 12892 12886 12893 1    
 12893 12887 12888 ar   
 12894 12888 12889 ar   
 12895 12888 12894 1    
 12896 12889 12895 1    
 12897 12890 12891 1    
 12898 12891 12899 1    
 12899 12891 12898 1    
 12900 12891 12900 1    
 12901 12901 12916 1    
 12902 12901 12907 1    
 12903 12902 12910 2    
 12904 12903 12904 1    
 12905 12903 12917 1    
 12906 12903 12910 am   BACKBONE|DICT|INTERRES
 12907 12904 12905 ar   
 12908 12904 12909 ar   
 12909 12905 12906 ar   
 12910 12905 12912 1    
 12911 12906 12913 1    
 12912 12906 12907 ar   
 12913 12907 12908 ar   
 12914 12908 12914 1    
 12915 12908 12909 ar   
 12916 12909 12915 1    
 12917 12910 12911 1    
 12918 12911 12919 1    
 12919 12911 12918 1    
 12920 12911 12920 1    
 12921 12921 12936 1    
 12922 12921 12927 1    
 12923 12922 12930 2    
 12924 12923 12924 1    
 12925 12923 12937 1    
 12926 12923 12930 am   BACKBONE|DICT|INTERRES
 12927 12924 12929 ar   
 12928 12924 12925 ar   
 12929 12925 12926 ar   
 12930 12925 12932 1    
 12931 12926 12927 ar   
 12932 12926 12933 1    
 12933 12927 12928 ar   
 12934 12928 12929 ar   
 12935 12928 12934 1    
 12936 12929 12935 1    
 12937 12930 12931 1    
 12938 12931 12938 1    
 12939 12931 12940 1    
 12940 12931 12939 1    
 12941 12941 12947 1    
 12942 12941 12956 1    
 12943 12942 12950 2    
 12944 12943 12950 am   BACKBONE|DICT|INTERRES
 12945 12943 12944 1    
 12946 12943 12957 1    
 12947 12944 12949 ar   
 12948 12944 12945 ar   
 12949 12945 12952 1    
 12950 12945 12946 ar   
 12951 12946 12953 1    
 12952 12946 12947 ar   
 12953 12947 12948 ar   
 12954 12948 12954 1    
 12955 12948 12949 ar   
 12956 12949 12955 1    
 12957 12950 12951 1    
 12958 12951 12958 1    
 12959 12951 12960 1    
 12960 12951 12959 1    
 12961 12961 12976 1    
 12962 12961 12967 1    
 12963 12962 12970 2    
 12964 12963 12977 1    
 12965 12963 12970 am   BACKBONE|DICT|INTERRES
 12966 12963 12964 1    
 12967 12964 12965 ar   
 12968 12964 12969 ar   
 12969 12965 12972 1    
 12970 12965 12966 ar   
 12971 12966 12967 ar   
 12972 12966 12973 1    
 12973 12967 12968 ar   
 12974 12968 12969 ar   
 12975 12968 12974 1    
 12976 12969 12975 1    
 12977 12970 12971 1    
 12978 12971 12979 1    
 12979 12971 12978 1    
 12980 12971 12980 1    
 12981 12981 12996 1    
 12982 12981 12987 1    
 12983 12982 12990 2    
 12984 12983 12984 1    
 12985 12983 12997 1    
 12986 12983 12990 am   BACKBONE|DICT|INTERRES
 12987 12984 12985 ar   
 12988 12984 12989 ar   
 12989 12985 12986 ar   
 12990 12985 12992 1    
 12991 12986 12993 1    
 12992 12986 12987 ar   
 12993 12987 12988 ar   
 12994 12988 12994 1    
 12995 12988 12989 ar   
 12996 12989 12995 1    
 12997 12990 12991 1    
 12998 12991 12999 1    
 12999 12991 12998 1    
 13000 12991 13000 1    
 13001 13001 13016 1    
 13002 13001 13007 1    
 13003 13002 13010 2    
 13004 13003 13004 1    
 13005 13003 13017 1    
 13006 13003 13010 am   BACKBONE|DICT|INTERRES
 13007 13004 13009 ar   
 13008 13004 13005 ar   
 13009 13005 13006 ar   
 13010 13005 13012 1    
 13011 13006 13007 ar   
 13012 13006 13013 1    
 13013 13007 13008 ar   
 13014 13008 13009 ar   
 13015 13008 13014 1    
 13016 13009 13015 1    
 13017 13010 13011 1    
 13018 13011 13018 1    
 13019 13011 13020 1    
 13020 13011 13019 1    
 13021 13021 13027 1    
 13022 13021 13036 1    
 13023 13022 13030 2    
 13024 13023 13030 am   BACKBONE|DICT|INTERRES
 13025 13023 13024 1    
 13026 13023 13037 1    
 13027 13024 13029 ar   
 13028 13024 13025 ar   
 13029 13025 13032 1    
 13030 13025 13026 ar   
 13031 13026 13033 1    
 13032 13026 13027 ar   
 13033 13027 13028 ar   
 13034 13028 13034 1    
 13035 13028 13029 ar   
 13036 13029 13035 1    
 13037 13030 13031 1    
 13038 13031 13038 1    
 13039 13031 13040 1    
 13040 13031 13039 1    
 13041 13041 13056 1    
 13042 13041 13047 1    
 13043 13042 13050 2    
 13044 13043 13057 1    
 13045 13043 13050 am   BACKBONE|DICT|INTERRES
 13046 13043 13044 1    
 13047 13044 13045 ar   
 13048 13044 13049 ar   
 13049 13045 13052 1    
 13050 13045 13046 ar   
 13051 13046 13047 ar   
 13052 13046 13053 1    
 13053 13047 13048 ar   
 13054 13048 13049 ar   
 13055 13048 13054 1    
 13056 13049 13055 1    
 13057 13050 13051 1    
 13058 13051 13059 1    
 13059 13051 13058 1    
 13060 13051 13060 1    
 13061 13061 13076 1    
 13062 13061 13067 1    
 13063 13062 13070 2    
 13064 13063 13064 1    
 13065 13063 13077 1    
 13066 13063 13070 am   BACKBONE|DICT|INTERRES
 13067 13064 13065 ar   
 13068 13064 13069 ar   
 13069 13065 13066 ar   
 13070 13065 13072 1    
 13071 13066 13073 1    
 13072 13066 13067 ar   
 13073 13067 13068 ar   
 13074 13068 13074 1    
 13075 13068 13069 ar   
 13076 13069 13075 1    
 13077 13070 13071 1    
 13078 13071 13079 1    
 13079 13071 13078 1    
 13080 13071 13080 1    
 13081 13081 13096 1    
 13082 13081 13087 1    
 13083 13082 13090 2    
 13084 13083 13084 1    
 13085 13083 13097 1    
 13086 13083 13090 am   BACKBONE|DICT|INTERRES
 13087 13084 13089 ar   
 13088 13084 13085 ar   
 13089 13085 13086 ar   
 13090 13085 13092 1    
 13091 13086 13087 ar   
 13092 13086 13093 1    
 13093 13087 13088 ar   
 13094 13088 13089 ar   
 13095 13088 13094 1    
 13096 13089 13095 1    
 13097 13090 13091 1    
 13098 13091 13098 1    
 13099 13091 13100 1    
 13100 13091 13099 1    
 13101 13101 13107 1    
 13102 13101 13116 1    
 13103 13102 13110 2    
 13104 13103 13110 am   BACKBONE|DICT|INTERRES
 13105 13103 13104 1    
 13106 13103 13117 1    
 13107 13104 13109 ar   
 13108 13104 13105 ar   
 13109 13105 13112 1    
 13110 13105 13106 ar   
 13111 13106 13113 1    
 13112 13106 13107 ar   
 13113 13107 13108 ar   
 13114 13108 13114 1    
 13115 13108 13109 ar   
 13116 13109 13115 1    
 13117 13110 13111 1    
 13118 13111 13118 1    
 13119 13111 13120 1    
 13120 13111 13119 1    
 13121 13121 13136 1    
 13122 13121 13127 1    
 13123 13122 13130 2    
 13124 13123 13137 1    
 13125 13123 13130 am   BACKBONE|DICT|INTERRES
 13126 13123 13124 1    
 13127 13124 13125 ar   
 13128 13124 13129 ar   
 13129 13125 13132 1    
 13130 13125 13126 ar   
 13131 13126 13127 ar   
 13132 13126 13133 1    
 13133 13127 13128 ar   
 13134 13128 13129 ar   
 13135 13128 13134 1    
 13136 13129 13135 1    
 13137 13130 13131 1    
 13138 13131 13139 1    
 13139 13131 13138 1    
 13140 13131 13140 1    
 13141 13141 13156 1    
 13142 13141 13147 1    
 13143 13142 13150 2    
 13144 13143 13144 1    
 13145 13143 13157 1    
 13146 13143 13150 am   BACKBONE|DICT|INTERRES
 13147 13144 13145 ar   
 13148 13144 13149 ar   
 13149 13145 13146 ar   
 13150 13145 13152 1    
 13151 13146 13153 1    
 13152 13146 13147 ar   
 13153 13147 13148 ar   
 13154 13148 13154 1    
 13155 13148 13149 ar   
 13156 13149 13155 1    
 13157 13150 13151 1    
 13158 13151 13159 1    
 13159 13151 13158 1    
 13160 13151 13160 1    
 13161 13161 13176 1    
 13162 13161 13167 1    
 13163 13162 13170 2    
 13164 13163 13164 1    
 13165 13163 13177 1    
 13166 13163 13170 am   BACKBONE|DICT|INTERRES
 13167 13164 13169 ar   
 13168 13164 13165 ar   
 13169 13165 13166 ar   
 13170 13165 13172 1    
 13171 13166 13167 ar   
 13172 13166 13173 1    
 13173 13167 13168 ar   
 13174 13168 13169 ar   
 13175 13168 13174 1    
 13176 13169 13175 1    
 13177 13170 13171 1    
 13178 13171 13178 1    
 13179 13171 13180 1    
 13180 13171 13179 1    
 13181 13181 13187 1    
 13182 13181 13196 1    
 13183 13182 13190 2    
 13184 13183 13190 am   BACKBONE|DICT|INTERRES
 13185 13183 13184 1    
 13186 13183 13197 1    
 13187 13184 13189 ar   
 13188 13184 13185 ar   
 13189 13185 13192 1    
 13190 13185 13186 ar   
 13191 13186 13193 1    
 13192 13186 13187 ar   
 13193 13187 13188 ar   
 13194 13188 13194 1    
 13195 13188 13189 ar   
 13196 13189 13195 1    
 13197 13190 13191 1    
 13198 13191 13198 1    
 13199 13191 13200 1    
 13200 13191 13199 1    
 13201 13201 13216 1    
 13202 13201 13207 1    
 13203 13202 13210 2    
 13204 13203 13217 1    
 13205 13203 13210 am   BACKBONE|DICT|INTERRES
 13206 13203 13204 1    
 13207 13204 13205 ar   
 13208 13204 13209 ar   
 13209 13205 13212 1    
 13210 13205 13206 ar   
 13211 13206 13207 ar   
 13212 13206 13213 1    
 13213 13207 13208 ar   
 13214 13208 13209 ar   
 13215 13208 13214 1    
 13216 13209 13215 1    
 13217 13210 13211 1    
 13218 13211 13219 1    
 13219 13211 13218 1    
 13220 13211 13220 1    
 13221 13221 13236 1    
 13222 13221 13227 1    
 13223 13222 13230 2    
 13224 13223 13224 1    
 13225 13223 13237 1    
 13226 13223 13230 am   BACKBONE|DICT|INTERRES
 13227 13224 13225 ar   
 13228 13224 13229 ar   
 13229 13225 13226 ar   
 13230 13225 13232 1    
 13231 13226 13233 1    
 13232 13226 13227 ar   
 13233 13227 13228 ar   
 13234 13228 13234 1    
 13235 13228 13229 ar   
 13236 13229 13235 1    
 13237 13230 13231 1    
 13238 13231 13239 1    
 13239 13231 13238 1    
 13240 13231 13240 1    
 13241 13241 13256 1    
 13242 13241 13247 1    
 13243 13242 13250 2    
 13244 13243 13244 1    
 13245 13243 13257 1    
 13246 13243 13250 am   BACKBONE|DICT|INTERRES
 13247 13244 13249 ar   
 13248 13244 13245 ar   
 13249 13245 13246 ar   
 13250 13245 13252 1    
 13251 13246 13247 ar   
 13252 13246 13253 1    
 13253 13247 13248 ar   
 13254 13248 13249 ar   
 13255 13248 13254 1    
 13256 13249 13255 1    
 13257 13250 13251 1    
 13258 13251 13258 1    
 13259 13251 13260 1    
 13260 13251 13259 1    
 13261 13261 13267 1    
 13262 13261 13276 1    
 13263 13262 13270 2    
 13264 13263 13270 am   BACKBONE|DICT|INTERRES
 13265 13263 13264 1    
 13266 13263 13277 1    
 13267 13264 13269 ar   
 13268 13264 13265 ar   
 13269 13265 13272 1    
 13270 13265 13266 ar   
 13271 13266 13273 1    
 13272 13266 13267 ar   
 13273 13267 13268 ar   
 13274 13268 13274 1    
 13275 13268 13269 ar   
 13276 13269 13275 1    
 13277 13270 13271 1    
 13278 13271 13278 1    
 13279 13271 13280 1    
 13280 13271 13279 1    
 13281 13281 13296 1    
 13282 13281 13287 1    
 13283 13282 13290 2    
 13284 13283 13297 1    
 13285 13283 13290 am   BACKBONE|DICT|INTERRES
 13286 13283 13284 1    
 13287 13284 13285 ar   
 13288 13284 13289 ar   
 13289 13285 13292 1    
 13290 13285 13286 ar   
 13291 13286 13287 ar   
 13292 13286 13293 1    
 13293 13287 13288 ar   
 13294 13288 13289 ar   
 13295 13288 13294 1    
 13296 13289 13295 1    
 13297 13290 13291 1    
 13298 13291 13299 1    
 13299 13291 13298 1    
 13300 13291 13300 1    
 13301 13301 13316 1    
 13302 13301 13307 1    
 13303 13302 13310 2    
 13304 13303 13304 1    
 13305 13303 13317 1    
 13306 13303 13310 am   BACKBONE|DICT|INTERRES
 13307 13304 13305 ar   
 13308 13304 13309 ar   
 13309 13305 13306 ar   
 13310 13305 13312 1    
 13311 13306 13313 1    
 13312 13306 13307 ar   
 13313 13307 13308 ar   
 13314 13308 13314 1    
 13315 13308 13309 ar   
 13316 13309 13315 1    
 13317 13310 13311 1    
 13318 13311 13319 1    
 13319 13311 13318 1    
 13320 13311 13320 1    
 13321 13321 13336 1    
 13322 13321 13327 1    
 13323 13322 13330 2    
 13324 13323 13324 1    
 13325 13323 13337 1    
 13326 13323 13330 am   BACKBONE|DICT|INTERRES
 13327 13324 13329 ar   
 13328 13324 13325 ar   
 13329 13325 13326 ar   
 13330 13325 13332 1    
 13331 13326 13327 ar   
 13332 13326 13333 1    
 13333 13327 13328 ar   
 13334 13328 13329 ar   
 13335 13328 13334 1    
 13336 13329 13335 1    
 13337 13330 13331 1    
 13338 13331 13338 1    
 13339 13331 13340 1    
 13340 13331 13339 1    
 13341 13341 13347 1    
 13342 13341 13356 1    
 13343 13342 13350 2    
 13344 13343 13350 am   BACKBONE|DICT|INTERRES
 13345 13343 13344 1    
 13346 13343 13357 1    
 13347 13344 13349 ar   
 13348 13344 13345 ar   
 13349 13345 13352 1    
 13350 13345 13346 ar   
 13351 13346 13353 1    
 13352 13346 13347 ar   
 13353 13347 13348 ar   
 13354 13348 13354 1    
 13355 13348 13349 ar   
 13356 13349 13355 1    
 13357 13350 13351 1    
 13358 13351 13358 1    
 13359 13351 13360 1    
 13360 13351 13359 1    
 13361 13361 13376 1    
 13362 13361 13367 1    
 13363 13362 13370 2    
 13364 13363 13377 1    
 13365 13363 13370 am   BACKBONE|DICT|INTERRES
 13366 13363 13364 1    
 13367 13364 13365 ar   
 13368 13364 13369 ar   
 13369 13365 13372 1    
 13370 13365 13366 ar   
 13371 13366 13367 ar   
 13372 13366 13373 1    
 13373 13367 13368 ar   
 13374 13368 13369 ar   
 13375 13368 13374 1    
 13376 13369 13375 1    
 13377 13370 13371 1    
 13378 13371 13379 1    
 13379 13371 13378 1    
 13380 13371 13380 1    
 13381 13381 13396 1    
 13382 13381 13387 1    
 13383 13382 13390 2    
 13384 13383 13384 1    
 13385 13383 13397 1    
 13386 13383 13390 am   BACKBONE|DICT|INTERRES
 13387 13384 13385 ar   
 13388 13384 13389 ar   
 13389 13385 13386 ar   
 13390 13385 13392 1    
 13391 13386 13393 1    
 13392 13386 13387 ar   
 13393 13387 13388 ar   
 13394 13388 13394 1    
 13395 13388 13389 ar   
 13396 13389 13395 1    
 13397 13390 13391 1    
 13398 13391 13399 1    
 13399 13391 13398 1    
 13400 13391 13400 1    
 13401 13401 13416 1    
 13402 13401 13407 1    
 13403 13402 13410 2    
 13404 13403 13404 1    
 13405 13403 13417 1    
 13406 13403 13410 am   BACKBONE|DICT|INTERRES
 13407 13404 13409 ar   
 13408 13404 13405 ar   
 13409 13405 13406 ar   
 13410 13405 13412 1    
 13411 13406 13407 ar   
 13412 13406 13413 1    
 13413 13407 13408 ar   
 13414 13408 13409 ar   
 13415 13408 13414 1    
 13416 13409 13415 1    
 13417 13410 13411 1    
 13418 13411 13418 1    
 13419 13411 13420 1    
 13420 13411 13419 1    
 13421 13421 13427 1    
 13422 13421 13436 1    
 13423 13422 13430 2    
 13424 13423 13430 am   BACKBONE|DICT|INTERRES
 13425 13423 13424 1    
 13426 13423 13437 1    
 13427 13424 13429 ar   
 13428 13424 13425 ar   
 13429 13425 13432 1    
 13430 13425 13426 ar   
 13431 13426 13433 1    
 13432 13426 13427 ar   
 13433 13427 13428 ar   
 13434 13428 13434 1    
 13435 13428 13429 ar   
 13436 13429 13435 1    
 13437 13430 13431 1    
 13438 13431 13438 1    
 13439 13431 13440 1    
 13440 13431 13439 1    
 13441 13441 13456 1    
 13442 13441 13447 1    
 13443 13442 13450 2    
 13444 13443 13457 1    
 13445 13443 13450 am   BACKBONE|DICT|INTERRES
 13446 13443 13444 1    
 13447 13444 13445 ar   
 13448 13444 13449 ar   
 13449 13445 13452 1    
 13450 13445 13446 ar   
 13451 13446 13447 ar   
 13452 13446 13453 1    
 13453 13447 13448 ar   
 13454 13448 13449 ar   
 13455 13448 13454 1    
 13456 13449 13455 1    
 13457 13450 13451 1    
 13458 13451 13459 1    
 13459 13451 13458 1    
 13460 13451 13460 1    
 13461 13461 13476 1    
 13462 13461 13467 1    
 13463 13462 13470 2    
 13464 13463 13464 1    
 13465 13463 13477 1    
 13466 13463 13470 am   BACKBONE|DICT|INTERRES
 13467 13464 13465 ar   
 13468 13464 13469 ar   
 13469 13465 13466 ar   
 13470 13465 13472 1    
 13471 13466 13473 1    
 13472 13466 13467 ar   
 13473 13467 13468 ar   
 13474 13468 13474 1    
 13475 13468 13469 ar   
 13476 13469 13475 1    
 13477 13470 13471 1    
 13478 13471 13479 1    
 13479 13471 13478 1    
 13480 13471 13480 1    
 13481 13481 13496 1    
 13482 13481 13487 1    
 13483 13482 13490 2    
 13484 13483 13484 1    
 13485 13483 13497 1    
 13486 13483 13490 am   BACKBONE|DICT|INTERRES
 13487 13484 13489 ar   
 13488 13484 13485 ar   
 13489 13485 13486 ar   
 13490 13485 13492 1    
 13491 13486 13487 ar   
 13492 13486 13493 1    
 13493 13487 13488 ar   
 13494 13488 13489 ar   
 13495 13488 13494 1    
 13496 13489 13495 1    
 13497 13490 13491 1    
 13498 13491 13498 1    
 13499 13491 13500 1    
 13500 13491 13499 1    
 13501 13501 13507 1    
 13502 13501 13516 1    
 13503 13502 13510 2    
 13504 13503 13510 am   BACKBONE|DICT|INTERRES
 13505 13503 13504 1    
 13506 13503 13517 1    
 13507 13504 13509 ar   
 13508 13504 13505 ar   
 13509 13505 13512 1    
 13510 13505 13506 ar   
 13511 13506 13513 1    
 13512 13506 13507 ar   
 13513 13507 13508 ar   
 13514 13508 13514 1    
 13515 13508 13509 ar   
 13516 13509 13515 1    
 13517 13510 13511 1    
 13518 13511 13518 1    
 13519 13511 13520 1    
 13520 13511 13519 1    
 13521 13521 13536 1    
 13522 13521 13527 1    
 13523 13522 13530 2    
 13524 13523 13537 1    
 13525 13523 13530 am   BACKBONE|DICT|INTERRES
 13526 13523 13524 1    
 13527 13524 13525 ar   
 13528 13524 13529 ar   
 13529 13525 13532 1    
 13530 13525 13526 ar   
 13531 13526 13527 ar   
 13532 13526 13533 1    
 13533 13527 13528 ar   
 13534 13528 13529 ar   
 13535 13528 13534 1    
 13536 13529 13535 1    
 13537 13530 13531 1    
 13538 13531 13539 1    
 13539 13531 13538 1    
 13540 13531 13540 1    
 13541 13541 13556 1    
 13542 13541 13547 1    
 13543 13542 13550 2    
 13544 13543 13544 1    
 13545 13543 13557 1    
 13546 13543 13550 am   BACKBONE|DICT|INTERRES
 13547 13544 13545 ar   
 13548 13544 13549 ar   
 13549 13545 13546 ar   
 13550 13545 13552 1    
 13551 13546 13553 1    
 13552 13546 13547 ar   
 13553 13547 13548 ar   
 13554 13548 13554 1    
 13555 13548 13549 ar   
 13556 13549 13555 1    
 13557 13550 13551 1    
 13558 13551 13559 1    
 13559 13551 13558 1    
 13560 13551 13560 1    
 13561 13561 13576 1    
 13562 13561 13567 1    
 13563 13562 13570 2    
 13564 13563 13564 1    
 13565 13563 13577 1    
 13566 13563 13570 am   BACKBONE|DICT|INTERRES
 13567 13564 13569 ar   
 13568 13564 13565 ar   
 13569 13565 13566 ar   
 13570 13565 13572 1    
 13571 13566 13567 ar   
 13572 13566 13573 1    
 13573 13567 13568 ar   
 13574 13568 13569 ar   
 13575 13568 13574 1    
 13576 13569 13575 1    
 13577 13570 13571 1    
 13578 13571 13578 1    
 13579 13571 13580 1    
 13580 13571 13579 1    
 13581 13581 13587 1    
 13582 13581 13596 1    
 13583 13582 13590 2    
 13584 13583 13590 am   BACKBONE|DICT|INTERRES
 13585 13583 13584 1    
 13586 13583 13597 1    
 13587 13584 13589 ar   
 13588 13584 13585 ar   
 13589 13585 13592 1    
 13590 13585 13586 ar   
 13591 13586 13593 1    
 13592 13586 13587 ar   
 13593 13587 13588 ar   
 13594 13588 13594 1    
 13595 13588 13589 ar   
 13596 13589 13595 1    
 13597 13590 13591 1    
 13598 13591 13598 1    
 13599 13591 13600 1    
 13600 13591 13599 1    
 13601 13601 13616 1    
 13602 13601 13607 1    
 13603 13602 13610 2    
 13604 13603 13617 1    
 13605 13603 13610 am   BACKBONE|DICT|INTERRES
 13606 13603 13604 1    
 13607 13604 13605 ar   
 13608 13604 13609 ar   
 13609 13605 13612 1    
 13610 13605 13606 ar   
 13611 13606 13607 ar   
 13612 13606 13613 1    
 13613 13607 13608 ar   
 13614 13608 13609 ar   
 13615 13608 13614 1    
 13616 13609 13615 1    
 13617 13610 13611 1    
 13618 13611 13619 1    
 13619 13611 13618 1    
 13620 13611 13620 1    
 13621 13621 13636 1    
 13622 13621 13627 1    
 13623 13622 13630 2    
 13624 13623 13624 1    
 13625 13623 13637 1    
 13626 13623 13630 am   BACKBONE|DICT|INTERRES
 13627 13624 13625 ar   
 13628 13624 13629 ar   
 13629 13625 13626 ar   
 13630 13625 13632 1    
 13631 13626 13633 1    
 13632 13626 13627 ar   
 13633 13627 13628 ar   
 13634 13628 13634 1    
 13635 13628 13629 ar   
 13636 13629 13635 1    
 13637 13630 13631 1    
 13638 13631 13639 1    
 13639 13631 13638 1    
 13640 13631 13640 1    
 13641 13641 13656 1    
 13642 13641 13647 1    
 13643 13642 13650 2    
 13644 13643 13644 1    
 13645 13643 13657 1    
 13646 13643 13650 am   BACKBONE|DICT|INTERRES
 13647 13644 13649 ar   
 13648 13644 13645 ar   
 13649 13645 13646 ar   
 13650 13645 13652 1    
 13651 13646 13647 ar   
 13652 13646 13653 1    
 13653 13647 13648 ar   
 13654 13648 13649 ar   
 13655 13648 13654 1    
 13656 13649 13655 1    
 13657 13650 13651 1    
 13658 13651 13658 1    
 13659 13651 13660 1    
 13660 13651 13659 1    
 13661 13661 13667 1    
 13662 13661 13676 1    
 13663 13662 13670 2    
 13664 13663 13670 am   BACKBONE|DICT|INTERRES
 13665 13663 13664 1    
 13666 13663 13677 1    
 13667 13664 13669 ar   
 13668 13664 13665 ar   
 13669 13665 13672 1    
 13670 13665 13666 ar   
 13671 13666 13673 1    
 13672 13666 13667 ar   
 13673 13667 13668 ar   
 13674 13668 13674 1    
 13675 13668 13669 ar   
 13676 13669 13675 1    
 13677 13670 13671 1    
 13678 13671 13678 1    
 13679 13671 13680 1    
 13680 13671 13679 1    
 13681 13681 13696 1    
 13682 13681 13687 1    
 13683 13682 13690 2    
 13684 13683 13697 1    
 13685 13683 13690 am   BACKBONE|DICT|INTERRES
 13686 13683 13684 1    
 13687 13684 13685 ar   
 13688 13684 13689 ar   
 13689 13685 13692 1    
 13690 13685 13686 ar   
 13691 13686 13687 ar   
 13692 13686 13693 1    
 13693 13687 13688 ar   
 13694 13688 13689 ar   
 13695 13688 13694 1    
 13696 13689 13695 1    
 13697 13690 13691 1    
 13698 13691 13699 1    
 13699 13691 13698 1    
 13700 13691 13700 1    
 13701 13701 13716 1    
 13702 13701 13707 1    
 13703 13702 13710 2    
 13704 13703 13704 1    
 13705 13703 13717 1    
 13706 13703 13710 am   BACKBONE|DICT|INTERRES
 13707 13704 13705 ar   
 13708 13704 13709 ar   
 13709 13705 13706 ar   
 13710 13705 13712 1    
 13711 13706 13713 1    
 13712 13706 13707 ar   
 13713 13707 13708 ar   
 13714 13708 13714 1    
 13715 13708 13709 ar   
 13716 13709 13715 1    
 13717 13710 13711 1    
 13718 13711 13719 1    
 13719 13711 13718 1    
 13720 13711 13720 1    
 13721 13721 13736 1    
 13722 13721 13727 1    
 13723 13722 13730 2    
 13724 13723 13724 1    
 13725 13723 13737 1    
 13726 13723 13730 am   BACKBONE|DICT|INTERRES
 13727 13724 13729 ar   
 13728 13724 13725 ar   
 13729 13725 13726 ar   
 13730 13725 13732 1    
 13731 13726 13727 ar   
 13732 13726 13733 1    
 13733 13727 13728 ar   
 13734 13728 13729 ar   
 13735 13728 13734 1    
 13736 13729 13735 1    
 13737 13730 13731 1    
 13738 13731 13738 1    
 13739 13731 13740 1    
 13740 13731 13739 1    
 13741 13741 13747 1    
 13742 13741 13756 1    
 13743 13742 13750 2    
 13744 13743 13750 am   BACKBONE|DICT|INTERRES
 13745 13743 13744 1    
 13746 13743 13757 1    
 13747 13744 13749 ar   
 13748 13744 13745 ar   
 13749 13745 13752 1    
 13750 13745 13746 ar   
 13751 13746 13753 1    
 13752 13746 13747 ar   
 13753 13747 13748 ar   
 13754 13748 13754 1    
 13755 13748 13749 ar   
 13756 13749 13755 1    
 13757 13750 13751 1    
 13758 13751 13758 1    
 13759 13751 13760 1    
 13760 13751 13759 1    
 13761 13761 13776 1    
 13762 13761 13767 1    
 13763 13762 13770 2    
 13764 13763 13777 1    
 13765 13763 13770 am   BACKBONE|DICT|INTERRES
 13766 13763 13764 1    
 13767 13764 13765 ar   
 13768 13764 13769 ar   
 13769 13765 13772 1    
 13770 13765 13766 ar   
 13771 13766 13767 ar   
 13772 13766 13773 1    
 13773 13767 13768 ar   
 13774 13768 13769 ar   
 13775 13768 13774 1    
 13776 13769 13775 1    
 13777 13770 13771 1    
 13778 13771 13779 1    
 13779 13771 13778 1    
 13780 13771 13780 1    
 13781 13781 13796 1    
 13782 13781 13787 1    
 13783 13782 13790 2    
 13784 13783 13784 1    
 13785 13783 13797 1    
 13786 13783 13790 am   BACKBONE|DICT|INTERRES
 13787 13784 13785 ar   
 13788 13784 13789 ar   
 13789 13785 13786 ar   
 13790 13785 13792 1    
 13791 13786 13793 1    
 13792 13786 13787 ar   
 13793 13787 13788 ar   
 13794 13788 13794 1    
 13795 13788 13789 ar   
 13796 13789 13795 1    
 13797 13790 13791 1    
 13798 13791 13799 1    
 13799 13791 13798 1    
 13800 13791 13800 1    
 13801 13801 13816 1    
 13802 13801 13807 1    
 13803 13802 13810 2    
 13804 13803 13804 1    
 13805 13803 13817 1    
 13806 13803 13810 am   BACKBONE|DICT|INTERRES
 13807 13804 13809 ar   
 13808 13804 13805 ar   
 13809 13805 13806 ar   
 13810 13805 13812 1    
 13811 13806 13807 ar   
 13812 13806 13813 1    
 13813 13807 13808 ar   
 13814 13808 13809 ar   
 13815 13808 13814 1    
 13816 13809 13815 1    
 13817 13810 13811 1    
 13818 13811 13818 1    
 13819 13811 13820 1    
 13820 13811 13819 1    
 13821 13821 13827 1    
 13822 13821 13836 1    
 13823 13822 13830 2    
 13824 13823 13830 am   BACKBONE|DICT|INTERRES
 13825 13823 13824 1    
 13826 13823 13837 1    
 13827 13824 13829 ar   
 13828 13824 13825 ar   
 13829 13825 13832 1    
 13830 13825 13826 ar   
 13831 13826 13833 1    
 13832 13826 13827 ar   
 13833 13827 13828 ar   
 13834 13828 13834 1    
 13835 13828 13829 ar   
 13836 13829 13835 1    
 13837 13830 13831 1    
 13838 13831 13838 1    
 13839 13831 13840 1    
 13840 13831 13839 1    
 13841 13841 13856 1    
 13842 13841 13847 1    
 13843 13842 13850 2    
 13844 13843 13857 1    
 13845 13843 13850 am   BACKBONE|DICT|INTERRES
 13846 13843 13844 1    
 13847 13844 13845 ar   
 13848 13844 13849 ar   
 13849 13845 13852 1    
 13850 13845 13846 ar   
 13851 13846 13847 ar   
 13852 13846 13853 1    
 13853 13847 13848 ar   
 13854 13848 13849 ar   
 13855 13848 13854 1    
 13856 13849 13855 1    
 13857 13850 13851 1    
 13858 13851 13859 1    
 13859 13851 13858 1    
 13860 13851 13860 1    
 13861 13861 13876 1    
 13862 13861 13867 1    
 13863 13862 13870 2    
 13864 13863 13864 1    
 13865 13863 13877 1    
 13866 13863 13870 am   BACKBONE|DICT|INTERRES
 13867 13864 13865 ar   
 13868 13864 13869 ar   
 13869 13865 13866 ar   
 13870 13865 13872 1    
 13871 13866 13873 1    
 13872 13866 13867 ar   
 13873 13867 13868 ar   
 13874 13868 13874 1    
 13875 13868 13869 ar   
 13876 13869 13875 1    
 13877 13870 13871 1    
 13878 13871 13879 1    
 13879 13871 13878 1    
 13880 13871 13880 1    
 13881 13881 13896 1    
 13882 13881 13887 1    
 13883 13882 13890 2    
 13884 13883 13884 1    
 13885 13883 13897 1    
 13886 13883 13890 am   BACKBONE|DICT|INTERRES
 13887 13884 13889 ar   
 13888 13884 13885 ar   
 13889 13885 13886 ar   
 13890 13885 13892 1    
 13891 13886 13887 ar   
 13892 13886 13893 1    
 13893 13887 13888 ar   
 13894 13888 13889 ar   
 13895 13888 13894 1    
 13896 13889 13895 1    
 13897 13890 13891 1    
 13898 13891 13898 1    
 13899 13891 13900 1    
 13900 13891 13899 1    
 13901 13901 13907 1    
 13902 13901 13916 1    
 13903 13902 13910 2    
 13904 13903 13910 am   BACKBONE|DICT|INTERRES
 13905 13903 13904 1    
 13906 13903 13917 1    
 13907 13904 13909 ar   
 13908 13904 13905 ar   
 13909 13905 13912 1    
 13910 13905 13906 ar   
 13911 13906 13913 1    
 13912 13906 13907 ar   
 13913 13907 13908 ar   
 13914 13908 13914 1    
 13915 13908 13909 ar   
 13916 13909 13915 1    
 13917 13910 13911 1    
 13918 13911 13918 1    
 13919 13911 13920 1    
 13920 13911 13919 1    
 13921 13921 13936 1    
 13922 13921 13927 1    
 13923 13922 13930 2    
 13924 13923 13937 1    
 13925 13923 13930 am   BACKBONE|DICT|INTERRES
 13926 13923 13924 1    
 13927 13924 13925 ar   
 13928 13924 13929 ar   
 13929 13925 13932 1    
 13930 13925 13926 ar   
 13931 13926 13927 ar   
 13932 13926 13933 1    
 13933 13927 13928 ar   
 13934 13928 13929 ar   
 13935 13928 13934 1    
 13936 13929 13935 1    
 13937 13930 13931 1    
 13938 13931 13939 1    
 13939 13931 13938 1    
 13940 13931 13940 1    
 13941 13941 13956 1    
 13942 13941 13947 1    
 13943 13942 13950 2    
 13944 13943 13944 1    
 13945 13943 13957 1    
 13946 13943 13950 am   BACKBONE|DICT|INTERRES
 13947 13944 13945 ar   
 13948 13944 13949 ar   
 13949 13945 13946 ar   
 13950 13945 13952 1    
 13951 13946 13953 1    
 13952 13946 13947 ar   
 13953 13947 13948 ar   
 13954 13948 13954 1    
 13955 13948 13949 ar   
 13956 13949 13955 1    
 13957 13950 13951 1    
 13958 13951 13959 1    
 13959 13951 13958 1    
 13960 13951 13960 1    
 13961 13961 13976 1    
 13962 13961 13967 1    
 13963 13962 13970 2    
 13964 13963 13964 1    
 13965 13963 13977 1    
 13966 13963 13970 am   BACKBONE|DICT|INTERRES
 13967 13964 13969 ar   
 13968 13964 13965 ar   
 13969 13965 13966 ar   
 13970 13965 13972 1    
 13971 13966 13967 ar   
 13972 13966 13973 1    
 13973 13967 13968 ar   
 13974 13968 13969 ar   
 13975 13968 13974 1    
 13976 13969 13975 1    
 13977 13970 13971 1    
 13978 13971 13978 1    
 13979 13971 13980 1    
 13980 13971 13979 1    
 13981 13981 13987 1    
 13982 13981 13996 1    
 13983 13982 13990 2    
 13984 13983 13990 am   BACKBONE|DICT|INTERRES
 13985 13983 13984 1    
 13986 13983 13997 1    
 13987 13984 13989 ar   
 13988 13984 13985 ar   
 13989 13985 13992 1    
 13990 13985 13986 ar   
 13991 13986 13993 1    
 13992 13986 13987 ar   
 13993 13987 13988 ar   
 13994 13988 13994 1    
 13995 13988 13989 ar   
 13996 13989 13995 1    
 13997 13990 13991 1    
 13998 13991 13998 1    
 13999 13991 14000 1    
 14000 13991 13999 1    
 14001 14001 14016 1    
 14002 14001 14007 1    
 14003 14002 14010 2    
 14004 14003 14017 1    
 14005 14003 14010 am   BACKBONE|DICT|INTERRES
 14006 14003 14004 1    
 14007 14004 14005 ar   
 14008 14004 14009 ar   
 14009 14005 14012 1    
 14010 14005 14006 ar   
 14011 14006 14007 ar   
 14012 14006 14013 1    
 14013 14007 14008 ar   
 14014 14008 14009 ar   
 14015 14008 14014 1    
 14016 14009 14015 1    
 14017 14010 14011 1    
 14018 14011 14019 1    
 14019 14011 14018 1    
 14020 14011 14020 1    
 14021 14021 14036 1    
 14022 14021 14027 1    
 14023 14022 14030 2    
 14024 14023 14024 1    
 14025 14023 14037 1    
 14026 14023 14030 am   BACKBONE|DICT|INTERRES
 14027 14024 14025 ar   
 14028 14024 14029 ar   
 14029 14025 14026 ar   
 14030 14025 14032 1    
 14031 14026 14033 1    
 14032 14026 14027 ar   
 14033 14027 14028 ar   
 14034 14028 14034 1    
 14035 14028 14029 ar   
 14036 14029 14035 1    
 14037 14030 14031 1    
 14038 14031 14039 1    
 14039 14031 14038 1    
 14040 14031 14040 1    
 14041 14041 14056 1    
 14042 14041 14047 1    
 14043 14042 14050 2    
 14044 14043 14044 1    
 14045 14043 14057 1    
 14046 14043 14050 am   BACKBONE|DICT|INTERRES
 14047 14044 14049 ar   
 14048 14044 14045 ar   
 14049 14045 14046 ar   
 14050 14045 14052 1    
 14051 14046 14047 ar   
 14052 14046 14053 1    
 14053 14047 14048 ar   
 14054 14048 14049 ar   
 14055 14048 14054 1    
 14056 14049 14055 1    
 14057 14050 14051 1    
 14058 14051 14058 1    
 14059 14051 14060 1    
 14060 14051 14059 1    
 14061 14061 14067 1    
 14062 14061 14076 1    
 14063 14062 14070 2    
 14064 14063 14070 am   BACKBONE|DICT|INTERRES
 14065 14063 14064 1    
 14066 14063 14077 1    
 14067 14064 14069 ar   
 14068 14064 14065 ar   
 14069 14065 14072 1    
 14070 14065 14066 ar   
 14071 14066 14073 1    
 14072 14066 14067 ar   
 14073 14067 14068 ar   
 14074 14068 14074 1    
 14075 14068 14069 ar   
 14076 14069 14075 1    
 14077 14070 14071 1    
 14078 14071 14078 1    
 14079 14071 14080 1    
 14080 14071 14079 1    
 14081 14081 14096 1    
 14082 14081 14087 1    
 14083 14082 14090 2    
 14084 14083 14097 1    
 14085 14083 14090 am   BACKBONE|DICT|INTERRES
 14086 14083 14084 1    
 14087 14084 14085 ar   
 14088 14084 14089 ar   
 14089 14085 14092 1    
 14090 14085 14086 ar   
 14091 14086 14087 ar   
 14092 14086 14093 1    
 14093 14087 14088 ar   
 14094 14088 14089 ar   
 14095 14088 14094 1    
 14096 14089 14095 1    
 14097 14090 14091 1    
 14098 14091 14099 1    
 14099 14091 14098 1    
 14100 14091 14100 1    
 14101 14101 14116 1    
 14102 14101 14107 1    
 14103 14102 14110 2    
 14104 14103 14104 1    
 14105 14103 14117 1    
 14106 14103 14110 am   BACKBONE|DICT|INTERRES
 14107 14104 14105 ar   
 14108 14104 14109 ar   
 14109 14105 14106 ar   
 14110 14105 14112 1    
 14111 14106 14113 1    
 14112 14106 14107 ar   
 14113 14107 14108 ar   
 14114 14108 14114 1    
 14115 14108 14109 ar   
 14116 14109 14115 1    
 14117 14110 14111 1    
 14118 14111 14119 1    
 14119 14111 14118 1    
 14120 14111 14120 1    
 14121 14121 14136 1    
 14122 14121 14127 1    
 14123 14122 14130 2    
 14124 14123 14124 1    
 14125 14123 14137 1    
 14126 14123 14130 am   BACKBONE|DICT|INTERRES
 14127 14124 14129 ar   
 14128 14124 14125 ar   
 14129 14125 14126 ar   
 14130 14125 14132 1    
 14131 14126 14127 ar   
 14132 14126 14133 1    
 14133 14127 14128 ar   
 14134 14128 14129 ar   
 14135 14128 14134 1    
 14136 14129 14135 1    
 14137 14130 14131 1    
 14138 14131 14138 1    
 14139 14131 14140 1    
 14140 14131 14139 1    
 14141 14141 14147 1    
 14142 14141 14156 1    
 14143 14142 14150 2    
 14144 14143 14150 am   BACKBONE|DICT|INTERRES
 14145 14143 14144 1    
 14146 14143 14157 1    
 14147 14144 14149 ar   
 14148 14144 14145 ar   
 14149 14145 14152 1    
 14150 14145 14146 ar   
 14151 14146 14153 1    
 14152 14146 14147 ar   
 14153 14147 14148 ar   
 14154 14148 14154 1    
 14155 14148 14149 ar   
 14156 14149 14155 1    
 14157 14150 14151 1    
 14158 14151 14158 1    
 14159 14151 14160 1    
 14160 14151 14159 1    
 14161 14161 14176 1    
 14162 14161 14167 1    
 14163 14162 14170 2    
 14164 14163 14177 1    
 14165 14163 14170 am   BACKBONE|DICT|INTERRES
 14166 14163 14164 1    
 14167 14164 14165 ar   
 14168 14164 14169 ar   
 14169 14165 14172 1    
 14170 14165 14166 ar   
 14171 14166 14167 ar   
 14172 14166 14173 1    
 14173 14167 14168 ar   
 14174 14168 14169 ar   
 14175 14168 14174 1    
 14176 14169 14175 1    
 14177 14170 14171 1    
 14178 14171 14179 1    
 14179 14171 14178 1    
 14180 14171 14180 1    
 14181 14181 14196 1    
 14182 14181 14187 1    
 14183 14182 14190 2    
 14184 14183 14184 1    
 14185 14183 14197 1    
 14186 14183 14190 am   BACKBONE|DICT|INTERRES
 14187 14184 14185 ar   
 14188 14184 14189 ar   
 14189 14185 14186 ar   
 14190 14185 14192 1    
 14191 14186 14193 1    
 14192 14186 14187 ar   
 14193 14187 14188 ar   
 14194 14188 14194 1    
 14195 14188 14189 ar   
 14196 14189 14195 1    
 14197 14190 14191 1    
 14198 14191 14199 1    
 14199 14191 14198 1    
 14200 14191 14200 1    
 14201 14201 14216 1    
 14202 14201 14207 1    
 14203 14202 14210 2    
 14204 14203 14204 1    
 14205 14203 14217 1    
 14206 14203 14210 am   BACKBONE|DICT|INTERRES
 14207 14204 14209 ar   
 14208 14204 14205 ar   
 14209 14205 14206 ar   
 14210 14205 14212 1    
 14211 14206 14207 ar   
 14212 14206 14213 1    
 14213 14207 14208 ar   
 14214 14208 14209 ar   
 14215 14208 14214 1    
 14216 14209 14215 1    
 14217 14210 14211 1    
 14218 14211 14218 1    
 14219 14211 14220 1    
 14220 14211 14219 1    
 14221 14221 14227 1    
 14222 14221 14236 1    
 14223 14222 14230 2    
 14224 14223 14230 am   BACKBONE|DICT|INTERRES
 14225 14223 14224 1    
 14226 14223 14237 1    
 14227 14224 14229 ar   
 14228 14224 14225 ar   
 14229 14225 14232 1    
 14230 14225 14226 ar   
 14231 14226 14233 1    
 14232 14226 14227 ar   
 14233 14227 14228 ar   
 14234 14228 14234 1    
 14235 14228 14229 ar   
 14236 14229 14235 1    
 14237 14230 14231 1    
 14238 14231 14238 1    
 14239 14231 14240 1    
 14240 14231 14239 1    
 14241 14241 14256 1    
 14242 14241 14247 1    
 14243 14242 14250 2    
 14244 14243 14257 1    
 14245 14243 14250 am   BACKBONE|DICT|INTERRES
 14246 14243 14244 1    
 14247 14244 14245 ar   
 14248 14244 14249 ar   
 14249 14245 14252 1    
 14250 14245 14246 ar   
 14251 14246 14247 ar   
 14252 14246 14253 1    
 14253 14247 14248 ar   
 14254 14248 14249 ar   
 14255 14248 14254 1    
 14256 14249 14255 1    
 14257 14250 14251 1    
 14258 14251 14259 1    
 14259 14251 14258 1    
 14260 14251 14260 1    
 14261 14261 14276 1    
 14262 14261 14267 1    
 14263 14262 14270 2    
 14264 14263 14264 1    
 14265 14263 14277 1    
 14266 14263 14270 am   BACKBONE|DICT|INTERRES
 14267 14264 14265 ar   
 14268 14264 14269 ar   
 14269 14265 14266 ar   
 14270 14265 14272 1    
 14271 14266 14273 1    
 14272 14266 14267 ar   
 14273 14267 14268 ar   
 14274 14268 14274 1    
 14275 14268 14269 ar   
 14276 14269 14275 1    
 14277 14270 14271 1    
 14278 14271 14279 1    
 14279 14271 14278 1    
 14280 14271 14280 1    
 14281 14281 14296 1    
 14282 14281 14287 1    
 14283 14282 14290 2    
 14284 14283 14284 1    
 14285 14283 14297 1    
 14286 14283 14290 am   BACKBONE|DICT|INTERRES
 14287 14284 14289 ar   
 14288 14284 14285 ar   
 14289 14285 14286 ar   
 14290 14285 14292 1    
 14291 14286 14287 ar   
 14292 14286 14293 1    
 14293 14287 14288 ar   
 14294 14288 14289 ar   
 14295 14288 14294 1    
 14296 14289 14295 1    
 14297 14290 14291 1    
 14298 14291 14298 1    
 14299 14291 14300 1    
 14300 14291 14299 1    
 14301 14301 14307 1    
 14302 14301 14316 1    
 14303 14302 14310 2    
 14304 14303 14310 am   BACKBONE|DICT|INTERRES
 14305 14303 14304 1    
 14306 14303 14317 1    
 14307 14304 14309 ar   
 14308 14304 14305 ar   
 14309 14305 14312 1    
 14310 14305 14306 ar   
 14311 14306 14313 1    
 14312 14306 14307 ar   
 14313 14307 14308 ar   
 14314 14308 14314 1    
 14315 14308 14309 ar   
 14316 14309 14315 1    
 14317 14310 14311 1    
 14318 14311 14318 1    
 14319 14311 14320 1    
 14320 14311 14319 1    
 14321 14321 14336 1    
 14322 14321 14327 1    
 14323 14322 14330 2    
 14324 14323 14337 1    
 14325 14323 14330 am   BACKBONE|DICT|INTERRES
 14326 14323 14324 1    
 14327 14324 14325 ar   
 14328 14324 14329 ar   
 14329 14325 14332 1    
 14330 14325 14326 ar   
 14331 14326 14327 ar   
 14332 14326 14333 1    
 14333 14327 14328 ar   
 14334 14328 14329 ar   
 14335 14328 14334 1    
 14336 14329 14335 1    
 14337 14330 14331 1    
 14338 14331 14339 1    
 14339 14331 14338 1    
 14340 14331 14340 1    
 14341 14341 14356 1    
 14342 14341 14347 1    
 14343 14342 14350 2    
 14344 14343 14344 1    
 14345 14343 14357 1    
 14346 14343 14350 am   BACKBONE|DICT|INTERRES
 14347 14344 14345 ar   
 14348 14344 14349 ar   
 14349 14345 14346 ar   
 14350 14345 14352 1    
 14351 14346 14353 1    
 14352 14346 14347 ar   
 14353 14347 14348 ar   
 14354 14348 14354 1    
 14355 14348 14349 ar   
 14356 14349 14355 1    
 14357 14350 14351 1    
 14358 14351 14359 1    
 14359 14351 14358 1    
 14360 14351 14360 1    
 14361 14361 14376 1    
 14362 14361 14367 1    
 14363 14362 14370 2    
 14364 14363 14364 1    
 14365 14363 14377 1    
 14366 14363 14370 am   BACKBONE|DICT|INTERRES
 14367 14364 14369 ar   
 14368 14364 14365 ar   
 14369 14365 14366 ar   
 14370 14365 14372 1    
 14371 14366 14367 ar   
 14372 14366 14373 1    
 14373 14367 14368 ar   
 14374 14368 14369 ar   
 14375 14368 14374 1    
 14376 14369 14375 1    
 14377 14370 14371 1    
 14378 14371 14378 1    
 14379 14371 14380 1    
 14380 14371 14379 1    
 14381 14381 14387 1    
 14382 14381 14396 1    
 14383 14382 14390 2    
 14384 14383 14390 am   BACKBONE|DICT|INTERRES
 14385 14383 14384 1    
 14386 14383 14397 1    
 14387 14384 14389 ar   
 14388 14384 14385 ar   
 14389 14385 14392 1    
 14390 14385 14386 ar   
 14391 14386 14393 1    
 14392 14386 14387 ar   
 14393 14387 14388 ar   
 14394 14388 14394 1    
 14395 14388 14389 ar   
 14396 14389 14395 1    
 14397 14390 14391 1    
 14398 14391 14398 1    
 14399 14391 14400 1    
 14400 14391 14399 1    
 14401 14401 14416 1    
 14402 14401 14407 1    
 14403 14402 14410 2    
 14404 14403 14417 1    
 14405 14403 14410 am   BACKBONE|DICT|INTERRES
 14406 14403 14404 1    
 14407 14404 14405 ar   
 14408 14404 14409 ar   
 14409 14405 14412 1    
 14410 14405 14406 ar   
 14411 14406 14407 ar   
 14412 14406 14413 1    
 14413 14407 14408 ar   
 14414 14408 14409 ar   
 14415 14408 14414 1    
 14416 14409 14415 1    
 14417 14410 14411 1    
 14418 14411 14419 1    
 14419 14411 14418 1    
 14420 14411 14420 1    
 14421 14421 14436 1    
 14422 14421 14427 1    
 14423 14422 14430 2    
 14424 14423 14424 1    
 14425 14423 14437 1    
 14426 14423 14430 am   BACKBONE|DICT|INTERRES
 14427 14424 14425 ar   
 14428 14424 14429 ar   
 14429 14425 14426 ar   
 14430 14425 14432 1    
 14431 14426 14433 1    
 14432 14426 14427 ar   
 14433 14427 14428 ar   
 14434 14428 14434 1    
 14435 14428 14429 ar   
 14436 14429 14435 1    
 14437 14430 14431 1    
 14438 14431 14439 1    
 14439 14431 14438 1    
 14440 14431 14440 1    
 14441 14441 14456 1    
 14442 14441 14447 1    
 14443 14442 14450 2    
 14444 14443 14444 1    
 14445 14443 14457 1    
 14446 14443 14450 am   BACKBONE|DICT|INTERRES
 14447 14444 14449 ar   
 14448 14444 14445 ar   
 14449 14445 14446 ar   
 14450 14445 14452 1    
 14451 14446 14447 ar   
 14452 14446 14453 1    
 14453 14447 14448 ar   
 14454 14448 14449 ar   
 14455 14448 14454 1    
 14456 14449 14455 1    
 14457 14450 14451 1    
 14458 14451 14458 1    
 14459 14451 14460 1    
 14460 14451 14459 1    
 14461 14461 14467 1    
 14462 14461 14476 1    
 14463 14462 14470 2    
 14464 14463 14470 am   BACKBONE|DICT|INTERRES
 14465 14463 14464 1    
 14466 14463 14477 1    
 14467 14464 14469 ar   
 14468 14464 14465 ar   
 14469 14465 14472 1    
 14470 14465 14466 ar   
 14471 14466 14473 1    
 14472 14466 14467 ar   
 14473 14467 14468 ar   
 14474 14468 14474 1    
 14475 14468 14469 ar   
 14476 14469 14475 1    
 14477 14470 14471 1    
 14478 14471 14478 1    
 14479 14471 14480 1    
 14480 14471 14479 1    
 14481 14481 14496 1    
 14482 14481 14487 1    
 14483 14482 14490 2    
 14484 14483 14497 1    
 14485 14483 14490 am   BACKBONE|DICT|INTERRES
 14486 14483 14484 1    
 14487 14484 14485 ar   
 14488 14484 14489 ar   
 14489 14485 14492 1    
 14490 14485 14486 ar   
 14491 14486 14487 ar   
 14492 14486 14493 1    
 14493 14487 14488 ar   
 14494 14488 14489 ar   
 14495 14488 14494 1    
 14496 14489 14495 1    
 14497 14490 14491 1    
 14498 14491 14499 1    
 14499 14491 14498 1    
 14500 14491 14500 1    
 14501 14501 14516 1    
 14502 14501 14507 1    
 14503 14502 14510 2    
 14504 14503 14504 1    
 14505 14503 14517 1    
 14506 14503 14510 am   BACKBONE|DICT|INTERRES
 14507 14504 14505 ar   
 14508 14504 14509 ar   
 14509 14505 14506 ar   
 14510 14505 14512 1    
 14511 14506 14513 1    
 14512 14506 14507 ar   
 14513 14507 14508 ar   
 14514 14508 14514 1    
 14515 14508 14509 ar   
 14516 14509 14515 1    
 14517 14510 14511 1    
 14518 14511 14519 1    
 14519 14511 14518 1    
 14520 14511 14520 1    
 14521 14521 14536 1    
 14522 14521 14527 1    
 14523 14522 14530 2    
 14524 14523 14524 1    
 14525 14523 14537 1    
 14526 14523 14530 am   BACKBONE|DICT|INTERRES
 14527 14524 14529 ar   
 14528 14524 14525 ar   
 14529 14525 14526 ar   
 14530 14525 14532 1    
 14531 14526 14527 ar   
 14532 14526 14533 1    
 14533 14527 14528 ar   
 14534 14528 14529 ar   
 14535 14528 14534 1    
 14536 14529 14535 1    
 14537 14530 14531 1    
 14538 14531 14538 1    
 14539 14531 14540 1    
 14540 14531 14539 1    
 14541 14541 14547 1    
 14542 14541 14556 1    
 14543 14542 14550 2    
 14544 14543 14550 am   BACKBONE|DICT|INTERRES
 14545 14543 14544 1    
 14546 14543 14557 1    
 14547 14544 14549 ar   
 14548 14544 14545 ar   
 14549 14545 14552 1    
 14550 14545 14546 ar   
 14551 14546 14553 1    
 14552 14546 14547 ar   
 14553 14547 14548 ar   
 14554 14548 14554 1    
 14555 14548 14549 ar   
 14556 14549 14555 1    
 14557 14550 14551 1    
 14558 14551 14558 1    
 14559 14551 14560 1    
 14560 14551 14559 1    
 14561 14561 14576 1    
 14562 14561 14567 1    
 14563 14562 14570 2    
 14564 14563 14577 1    
 14565 14563 14570 am   BACKBONE|DICT|INTERRES
 14566 14563 14564 1    
 14567 14564 14565 ar   
 14568 14564 14569 ar   
 14569 14565 14572 1    
 14570 14565 14566 ar   
 14571 14566 14567 ar   
 14572 14566 14573 1    
 14573 14567 14568 ar   
 14574 14568 14569 ar   
 14575 14568 14574 1    
 14576 14569 14575 1    
 14577 14570 14571 1    
 14578 14571 14579 1    
 14579 14571 14578 1    
 14580 14571 14580 1    
 14581 14581 14596 1    
 14582 14581 14587 1    
 14583 14582 14590 2    
 14584 14583 14584 1    
 14585 14583 14597 1    
 14586 14583 14590 am   BACKBONE|DICT|INTERRES
 14587 14584 14585 ar   
 14588 14584 14589 ar   
 14589 14585 14586 ar   
 14590 14585 14592 1    
 14591 14586 14593 1    
 14592 14586 14587 ar   
 14593 14587 14588 ar   
 14594 14588 14594 1    
 14595 14588 14589 ar   
 14596 14589 14595 1    
 14597 14590 14591 1    
 14598 14591 14599 1    
 14599 14591 14598 1    
 14600 14591 14600 1    
 14601 14601 14616 1    
 14602 14601 14607 1    
 14603 14602 14610 2    
 14604 14603 14604 1    
 14605 14603 14617 1    
 14606 14603 14610 am   BACKBONE|DICT|INTERRES
 14607 14604 14609 ar   
 14608 14604 14605 ar   
 14609 14605 14606 ar   
 14610 14605 14612 1    
 14611 14606 14607 ar   
 14612 14606 14613 1    
 14613 14607 14608 ar   
 14614 14608 14609 ar   
 14615 14608 14614 1    
 14616 14609 14615 1    
 14617 14610 14611 1    
 14618 14611 14618 1    
 14619 14611 14620 1    
 14620 14611 14619 1    
 14621 14621 14627 1    
 14622 14621 14636 1    
 14623 14622 14630 2    
 14624 14623 14630 am   BACKBONE|DICT|INTERRES
 14625 14623 14624 1    
 14626 14623 14637 1    
 14627 14624 14629 ar   
 14628 14624 14625 ar   
 14629 14625 14632 1    
 14630 14625 14626 ar   
 14631 14626 14633 1    
 14632 14626 14627 ar   
 14633 14627 14628 ar   
 14634 14628 14634 1    
 14635 14628 14629 ar   
 14636 14629 14635 1    
 14637 14630 14631 1    
 14638 14631 14638 1    
 14639 14631 14640 1    
 14640 14631 14639 1    
 14641 14641 14656 1    
 14642 14641 14647 1    
 14643 14642 14650 2    
 14644 14643 14657 1    
 14645 14643 14650 am   BACKBONE|DICT|INTERRES
 14646 14643 14644 1    
 14647 14644 14645 ar   
 14648 14644 14649 ar   
 14649 14645 14652 1    
 14650 14645 14646 ar   
 14651 14646 14647 ar   
 14652 14646 14653 1    
 14653 14647 14648 ar   
 14654 14648 14649 ar   
 14655 14648 14654 1    
 14656 14649 14655 1    
 14657 14650 14651 1    
 14658 14651 14659 1    
 14659 14651 14658 1    
 14660 14651 14660 1    
 14661 14661 14676 1    
 14662 14661 14667 1    
 14663 14662 14670 2    
 14664 14663 14664 1    
 14665 14663 14677 1    
 14666 14663 14670 am   BACKBONE|DICT|INTERRES
 14667 14664 14665 ar   
 14668 14664 14669 ar   
 14669 14665 14666 ar   
 14670 14665 14672 1    
 14671 14666 14673 1    
 14672 14666 14667 ar   
 14673 14667 14668 ar   
 14674 14668 14674 1    
 14675 14668 14669 ar   
 14676 14669 14675 1    
 14677 14670 14671 1    
 14678 14671 14679 1    
 14679 14671 14678 1    
 14680 14671 14680 1    
 14681 14681 14696 1    
 14682 14681 14687 1    
 14683 14682 14690 2    
 14684 14683 14684 1    
 14685 14683 14697 1    
 14686 14683 14690 am   BACKBONE|DICT|INTERRES
 14687 14684 14689 ar   
 14688 14684 14685 ar   
 14689 14685 14686 ar   
 14690 14685 14692 1    
 14691 14686 14687 ar   
 14692 14686 14693 1    
 14693 14687 14688 ar   
 14694 14688 14689 ar   
 14695 14688 14694 1    
 14696 14689 14695 1    
 14697 14690 14691 1    
 14698 14691 14698 1    
 14699 14691 14700 1    
 14700 14691 14699 1    
 14701 14701 14707 1    
 14702 14701 14716 1    
 14703 14702 14710 2    
 14704 14703 14710 am   BACKBONE|DICT|INTERRES
 14705 14703 14704 1    
 14706 14703 14717 1    
 14707 14704 14709 ar   
 14708 14704 14705 ar   
 14709 14705 14712 1    
 14710 14705 14706 ar   
 14711 14706 14713 1    
 14712 14706 14707 ar   
 14713 14707 14708 ar   
 14714 14708 14714 1    
 14715 14708 14709 ar   
 14716 14709 14715 1    
 14717 14710 14711 1    
 14718 14711 14718 1    
 14719 14711 14720 1    
 14720 14711 14719 1    
 14721 14721 14736 1    
 14722 14721 14727 1    
 14723 14722 14730 2    
 14724 14723 14737 1    
 14725 14723 14730 am   BACKBONE|DICT|INTERRES
 14726 14723 14724 1    
 14727 14724 14725 ar   
 14728 14724 14729 ar   
 14729 14725 14732 1    
 14730 14725 14726 ar   
 14731 14726 14727 ar   
 14732 14726 14733 1    
 14733 14727 14728 ar   
 14734 14728 14729 ar   
 14735 14728 14734 1    
 14736 14729 14735 1    
 14737 14730 14731 1    
 14738 14731 14739 1    
 14739 14731 14738 1    
 14740 14731 14740 1    
 14741 14741 14756 1    
 14742 14741 14747 1    
 14743 14742 14750 2    
 14744 14743 14744 1    
 14745 14743 14757 1    
 14746 14743 14750 am   BACKBONE|DICT|INTERRES
 14747 14744 14745 ar   
 14748 14744 14749 ar   
 14749 14745 14746 ar   
 14750 14745 14752 1    
 14751 14746 14753 1    
 14752 14746 14747 ar   
 14753 14747 14748 ar   
 14754 14748 14754 1    
 14755 14748 14749 ar   
 14756 14749 14755 1    
 14757 14750 14751 1    
 14758 14751 14759 1    
 14759 14751 14758 1    
 14760 14751 14760 1    
 14761 14761 14776 1    
 14762 14761 14767 1    
 14763 14762 14770 2    
 14764 14763 14764 1    
 14765 14763 14777 1    
 14766 14763 14770 am   BACKBONE|DICT|INTERRES
 14767 14764 14769 ar   
 14768 14764 14765 ar   
 14769 14765 14766 ar   
 14770 14765 14772 1    
 14771 14766 14767 ar   
 14772 14766 14773 1    
 14773 14767 14768 ar   
 14774 14768 14769 ar   
 14775 14768 14774 1    
 14776 14769 14775 1    
 14777 14770 14771 1    
 14778 14771 14778 1    
 14779 14771 14780 1    
 14780 14771 14779 1    
 14781 14781 14787 1    
 14782 14781 14796 1    
 14783 14782 14790 2    
 14784 14783 14790 am   BACKBONE|DICT|INTERRES
 14785 14783 14784 1    
 14786 14783 14797 1    
 14787 14784 14789 ar   
 14788 14784 14785 ar   
 14789 14785 14792 1    
 14790 14785 14786 ar   
 14791 14786 14793 1    
 14792 14786 14787 ar   
 14793 14787 14788 ar   
 14794 14788 14794 1    
 14795 14788 14789 ar   
 14796 14789 14795 1    
 14797 14790 14791 1    
 14798 14791 14798 1    
 14799 14791 14800 1    
 14800 14791 14799 1    
 14801 14801 14816 1    
 14802 14801 14807 1    
 14803 14802 14810 2    
 14804 14803 14817 1    
 14805 14803 14810 am   BACKBONE|DICT|INTERRES
 14806 14803 14804 1    
 14807 14804 14805 ar   
 14808 14804 14809 ar   
 14809 14805 14812 1    
 14810 14805 14806 ar   
 14811 14806 14807 ar   
 14812 14806 14813 1    
 14813 14807 14808 ar   
 14814 14808 14809 ar   
 14815 14808 14814 1    
 14816 14809 14815 1    
 14817 14810 14811 1    
 14818 14811 14819 1    
 14819 14811 14818 1    
 14820 14811 14820 1    
 14821 14821 14836 1    
 14822 14821 14827 1    
 14823 14822 14830 2    
 14824 14823 14824 1    
 14825 14823 14837 1    
 14826 14823 14830 am   BACKBONE|DICT|INTERRES
 14827 14824 14825 ar   
 14828 14824 14829 ar   
 14829 14825 14826 ar   
 14830 14825 14832 1    
 14831 14826 14833 1    
 14832 14826 14827 ar   
 14833 14827 14828 ar   
 14834 14828 14834 1    
 14835 14828 14829 ar   
 14836 14829 14835 1    
 14837 14830 14831 1    
 14838 14831 14839 1    
 14839 14831 14838 1    
 14840 14831 14840 1    
 14841 14841 14856 1    
 14842 14841 14847 1    
 14843 14842 14850 2    
 14844 14843 14844 1    
 14845 14843 14857 1    
 14846 14843 14850 am   BACKBONE|DICT|INTERRES
 14847 14844 14849 ar   
 14848 14844 14845 ar   
 14849 14845 14846 ar   
 14850 14845 14852 1    
 14851 14846 14847 ar   
 14852 14846 14853 1    
 14853 14847 14848 ar   
 14854 14848 14849 ar   
 14855 14848 14854 1    
 14856 14849 14855 1    
 14857 14850 14851 1    
 14858 14851 14858 1    
 14859 14851 14860 1    
 14860 14851 14859 1    
 14861 14861 14867 1    
 14862 14861 14876 1    
 14863 14862 14870 2    
 14864 14863 14870 am   BACKBONE|DICT|INTERRES
 14865 14863 14864 1    
 14866 14863 14877 1    
 14867 14864 14869 ar   
 14868 14864 14865 ar   
 14869 14865 14872 1    
 14870 14865 14866 ar   
 14871 14866 14873 1    
 14872 14866 14867 ar   
 14873 14867 14868 ar   
 14874 14868 14874 1    
 14875 14868 14869 ar   
 14876 14869 14875 1    
 14877 14870 14871 1    
 14878 14871 14878 1    
 14879 14871 14880 1    
 14880 14871 14879 1    
 14881 14881 14896 1    
 14882 14881 14887 1    
 14883 14882 14890 2    
 14884 14883 14897 1    
 14885 14883 14890 am   BACKBONE|DICT|INTERRES
 14886 14883 14884 1    
 14887 14884 14885 ar   
 14888 14884 14889 ar   
 14889 14885 14892 1    
 14890 14885 14886 ar   
 14891 14886 14887 ar   
 14892 14886 14893 1    
 14893 14887 14888 ar   
 14894 14888 14889 ar   
 14895 14888 14894 1    
 14896 14889 14895 1    
 14897 14890 14891 1    
 14898 14891 14899 1    
 14899 14891 14898 1    
 14900 14891 14900 1    
 14901 14901 14916 1    
 14902 14901 14907 1    
 14903 14902 14910 2    
 14904 14903 14904 1    
 14905 14903 14917 1    
 14906 14903 14910 am   BACKBONE|DICT|INTERRES
 14907 14904 14905 ar   
 14908 14904 14909 ar   
 14909 14905 14906 ar   
 14910 14905 14912 1    
 14911 14906 14913 1    
 14912 14906 14907 ar   
 14913 14907 14908 ar   
 14914 14908 14914 1    
 14915 14908 14909 ar   
 14916 14909 14915 1    
 14917 14910 14911 1    
 14918 14911 14919 1    
 14919 14911 14918 1    
 14920 14911 14920 1    
 14921 14921 14936 1    
 14922 14921 14927 1    
 14923 14922 14930 2    
 14924 14923 14924 1    
 14925 14923 14937 1    
 14926 14923 14930 am   BACKBONE|DICT|INTERRES
 14927 14924 14929 ar   
 14928 14924 14925 ar   
 14929 14925 14926 ar   
 14930 14925 14932 1    
 14931 14926 14927 ar   
 14932 14926 14933 1    
 14933 14927 14928 ar   
 14934 14928 14929 ar   
 14935 14928 14934 1    
 14936 14929 14935 1    
 14937 14930 14931 1    
 14938 14931 14938 1    
 14939 14931 14940 1    
 14940 14931 14939 1    
 14941 14941 14947 1    
 14942 14941 14956 1    
 14943 14942 14950 2    
 14944 14943 14950 am   BACKBONE|DICT|INTERRES
 14945 14943 14944 1    
 14946 14943 14957 1    
 14947 14944 14949 ar   
 14948 14944 14945 ar   
 14949 14945 14952 1    
 14950 14945 14946 ar   
 14951 14946 14953 1    
 14952 14946 14947 ar   
 14953 14947 14948 ar   
 14954 14948 14954 1    
 14955 14948 14949 ar   
 14956 14949 14955 1    
 14957 14950 14951 1    
 14958 14951 14958 1    
 14959 14951 14960 1    
 14960 14951 14959 1    
 14961 14961 14976 1    
 14962 14961 14967 1    
 14963 14962 14970 2    
 14964 14963 14977 1    
 14965 14963 14970 am   BACKBONE|DICT|INTERRES
 14966 14963 14964 1    
 14967 14964 14965 ar   
 14968 14964 14969 ar   
 14969 14965 14972 1    
 14970 14965 14966 ar   
 14971 14966 14967 ar   
 14972 14966 14973 1    
 14973 14967 14968 ar   
 14974 14968 14969 ar   
 14975 14968 14974 1    
 14976 14969 14975 1    
 14977 14970 14971 1    
 14978 14971 14979 1    
 14979 14971 14978 1    
 14980 14971 14980 1    
 14981 14981 14996 1    
 14982 14981 14987 1    
 14983 14982 14990 2    
 14984 14983 14984 1    
 14985 14983 14997 1    
 14986 14983 14990 am   BACKBONE|DICT|INTERRES
 14987 14984 14985 ar   
 14988 14984 14989 ar   
 14989 14985 14986 ar   
 14990 14985 14992 1    
 14991 14986 14993 1    
 14992 14986 14987 ar   
 14993 14987 14988 ar   
 14994 14988 14994 1    
 14995 14988 14989 ar   
 14996 14989 14995 1    
 14997 14990 14991 1    
 14998 14991 14999 1    
 14999 14991 14998 1    
 15000 14991 15000 1    
 15001 15001 15016 1    
 15002 15001 15007 1    
 15003 15002 15010 2    
 15004 15003 15004 1    
 15005 15003 15017 1    
 15006 15003 15010 am   BACKBONE|DICT|INTERRES
 15007 15004 15009 ar   
 15008 15004 15005 ar   
 15009 15005 15006 ar   
 15010 15005 15012 1    
 15011 15006 15007 ar   
 15012 15006 15013 1    
 15013 15007 15008 ar   
 15014 15008 15009 ar   
 15015 15008 15014 1    
 15016 15009 15015 1    
 15017 15010 15011 1    
 15018 15011 15018 1    
 15019 15011 15020 1    
 15020 15011 15019 1    
 15021 15021 15027 1    
 15022 15021 15036 1    
 15023 15022 15030 2    
 15024 15023 15030 am   BACKBONE|DICT|INTERRES
 15025 15023 15024 1    
 15026 15023 15037 1    
 15027 15024 15029 ar   
 15028 15024 15025 ar   
 15029 15025 15032 1    
 15030 15025 15026 ar   
 15031 15026 15033 1    
 15032 15026 15027 ar   
 15033 15027 15028 ar   
 15034 15028 15034 1    
 15035 15028 15029 ar   
 15036 15029 15035 1    
 15037 15030 15031 1    
 15038 15031 15038 1    
 15039 15031 15040 1    
 15040 15031 15039 1    
 15041 15041 15056 1    
 15042 15041 15047 1    
 15043 15042 15050 2    
 15044 15043 15057 1    
 15045 15043 15050 am   BACKBONE|DICT|INTERRES
 15046 15043 15044 1    
 15047 15044 15045 ar   
 15048 15044 15049 ar   
 15049 15045 15052 1    
 15050 15045 15046 ar   
 15051 15046 15047 ar   
 15052 15046 15053 1    
 15053 15047 15048 ar   
 15054 15048 15049 ar   
 15055 15048 15054 1    
 15056 15049 15055 1    
 15057 15050 15051 1    
 15058 15051 15059 1    
 15059 15051 15058 1    
 15060 15051 15060 1    
 15061 15061 15076 1    
 15062 15061 15067 1    
 15063 15062 15070 2    
 15064 15063 15064 1    
 15065 15063 15077 1    
 15066 15063 15070 am   BACKBONE|DICT|INTERRES
 15067 15064 15065 ar   
 15068 15064 15069 ar   
 15069 15065 15066 ar   
 15070 15065 15072 1    
 15071 15066 15073 1    
 15072 15066 15067 ar   
 15073 15067 15068 ar   
 15074 15068 15074 1    
 15075 15068 15069 ar   
 15076 15069 15075 1    
 15077 15070 15071 1    
 15078 15071 15079 1    
 15079 15071 15078 1    
 15080 15071 15080 1    
 15081 15081 15096 1    
 15082 15081 15087 1    
 15083 15082 15090 2    
 15084 15083 15084 1    
 15085 15083 15097 1    
 15086 15083 15090 am   BACKBONE|DICT|INTERRES
 15087 15084 15089 ar   
 15088 15084 15085 ar   
 15089 15085 15086 ar   
 15090 15085 15092 1    
 15091 15086 15087 ar   
 15092 15086 15093 1    
 15093 15087 15088 ar   
 15094 15088 15089 ar   
 15095 15088 15094 1    
 15096 15089 15095 1    
 15097 15090 15091 1    
 15098 15091 15098 1    
 15099 15091 15100 1    
 15100 15091 15099 1    
 15101 15101 15107 1    
 15102 15101 15116 1    
 15103 15102 15110 2    
 15104 15103 15110 am   BACKBONE|DICT|INTERRES
 15105 15103 15104 1    
 15106 15103 15117 1    
 15107 15104 15109 ar   
 15108 15104 15105 ar   
 15109 15105 15112 1    
 15110 15105 15106 ar   
 15111 15106 15113 1    
 15112 15106 15107 ar   
 15113 15107 15108 ar   
 15114 15108 15114 1    
 15115 15108 15109 ar   
 15116 15109 15115 1    
 15117 15110 15111 1    
 15118 15111 15118 1    
 15119 15111 15120 1    
 15120 15111 15119 1    
 15121 15121 15136 1    
 15122 15121 15127 1    
 15123 15122 15130 2    
 15124 15123 15137 1    
 15125 15123 15130 am   BACKBONE|DICT|INTERRES
 15126 15123 15124 1    
 15127 15124 15125 ar   
 15128 15124 15129 ar   
 15129 15125 15132 1    
 15130 15125 15126 ar   
 15131 15126 15127 ar   
 15132 15126 15133 1    
 15133 15127 15128 ar   
 15134 15128 15129 ar   
 15135 15128 15134 1    
 15136 15129 15135 1    
 15137 15130 15131 1    
 15138 15131 15139 1    
 15139 15131 15138 1    
 15140 15131 15140 1    
 15141 15141 15156 1    
 15142 15141 15147 1    
 15143 15142 15150 2    
 15144 15143 15144 1    
 15145 15143 15157 1    
 15146 15143 15150 am   BACKBONE|DICT|INTERRES
 15147 15144 15145 ar   
 15148 15144 15149 ar   
 15149 15145 15146 ar   
 15150 15145 15152 1    
 15151 15146 15153 1    
 15152 15146 15147 ar   
 15153 15147 15148 ar   
 15154 15148 15154 1    
 15155 15148 15149 ar   
 15156 15149 15155 1    
 15157 15150 15151 1    
 15158 15151 15159 1    
 15159 15151 15158 1    
 15160 15151 15160 1    
 15161 15161 15176 1    
 15162 15161 15167 1    
 15163 15162 15170 2    
 15164 15163 15164 1    
 15165 15163 15177 1    
 15166 15163 15170 am   BACKBONE|DICT|INTERRES
 15167 15164 15169 ar   
 15168 15164 15165 ar   
 15169 15165 15166 ar   
 15170 15165 15172 1    
 15171 15166 15167 ar   
 15172 15166 15173 1    
 15173 15167 15168 ar   
 15174 15168 15169 ar   
 15175 15168 15174 1    
 15176 15169 15175 1    
 15177 15170 15171 1    
 15178 15171 15178 1    
 15179 15171 15180 1    
 15180 15171 15179 1    
 15181 15181 15187 1    
 15182 15181 15196 1    
 15183 15182 15190 2    
 15184 15183 15190 am   BACKBONE|DICT|INTERRES
 15185 15183 15184 1    
 15186 15183 15197 1    
 15187 15184 15189 ar   
 15188 15184 15185 ar   
 15189 15185 15192 1    
 15190 15185 15186 ar   
 15191 15186 15193 1    
 15192 15186 15187 ar   
 15193 15187 15188 ar   
 15194 15188 15194 1    
 15195 15188 15189 ar   
 15196 15189 15195 1    
 15197 15190 15191 1    
 15198 15191 15198 1    
 15199 15191 15200 1    
 15200 15191 15199 1    
 15201 15201 15216 1    
 15202 15201 15207 1    
 15203 15202 15210 2    
 15204 15203 15217 1    
 15205 15203 15210 am   BACKBONE|DICT|INTERRES
 15206 15203 15204 1    
 15207 15204 15205 ar   
 15208 15204 15209 ar   
 15209 15205 15212 1    
 15210 15205 15206 ar   
 15211 15206 15207 ar   
 15212 15206 15213 1    
 15213 15207 15208 ar   
 15214 15208 15209 ar   
 15215 15208 15214 1    
 15216 15209 15215 1    
 15217 15210 15211 1    
 15218 15211 15219 1    
 15219 15211 15218 1    
 15220 15211 15220 1    
 15221 15221 15236 1    
 15222 15221 15227 1    
 15223 15222 15230 2    
 15224 15223 15224 1    
 15225 15223 15237 1    
 15226 15223 15230 am   BACKBONE|DICT|INTERRES
 15227 15224 15225 ar   
 15228 15224 15229 ar   
 15229 15225 15226 ar   
 15230 15225 15232 1    
 15231 15226 15233 1    
 15232 15226 15227 ar   
 15233 15227 15228 ar   
 15234 15228 15234 1    
 15235 15228 15229 ar   
 15236 15229 15235 1    
 15237 15230 15231 1    
 15238 15231 15239 1    
 15239 15231 15238 1    
 15240 15231 15240 1    
 15241 15241 15256 1    
 15242 15241 15247 1    
 15243 15242 15250 2    
 15244 15243 15244 1    
 15245 15243 15257 1    
 15246 15243 15250 am   BACKBONE|DICT|INTERRES
 15247 15244 15249 ar   
 15248 15244 15245 ar   
 15249 15245 15246 ar   
 15250 15245 15252 1    
 15251 15246 15247 ar   
 15252 15246 15253 1    
 15253 15247 15248 ar   
 15254 15248 15249 ar   
 15255 15248 15254 1    
 15256 15249 15255 1    
 15257 15250 15251 1    
 15258 15251 15258 1    
 15259 15251 15260 1    
 15260 15251 15259 1    
 15261 15261 15267 1    
 15262 15261 15276 1    
 15263 15262 15270 2    
 15264 15263 15270 am   BACKBONE|DICT|INTERRES
 15265 15263 15264 1    
 15266 15263 15277 1    
 15267 15264 15269 ar   
 15268 15264 15265 ar   
 15269 15265 15272 1    
 15270 15265 15266 ar   
 15271 15266 15273 1    
 15272 15266 15267 ar   
 15273 15267 15268 ar   
 15274 15268 15274 1    
 15275 15268 15269 ar   
 15276 15269 15275 1    
 15277 15270 15271 1    
 15278 15271 15278 1    
 15279 15271 15280 1    
 15280 15271 15279 1    
 15281 15281 15296 1    
 15282 15281 15287 1    
 15283 15282 15290 2    
 15284 15283 15297 1    
 15285 15283 15290 am   BACKBONE|DICT|INTERRES
 15286 15283 15284 1    
 15287 15284 15285 ar   
 15288 15284 15289 ar   
 15289 15285 15292 1    
 15290 15285 15286 ar   
 15291 15286 15287 ar   
 15292 15286 15293 1    
 15293 15287 15288 ar   
 15294 15288 15289 ar   
 15295 15288 15294 1    
 15296 15289 15295 1    
 15297 15290 15291 1    
 15298 15291 15299 1    
 15299 15291 15298 1    
 15300 15291 15300 1    
 15301 15301 15316 1    
 15302 15301 15307 1    
 15303 15302 15310 2    
 15304 15303 15304 1    
 15305 15303 15317 1    
 15306 15303 15310 am   BACKBONE|DICT|INTERRES
 15307 15304 15305 ar   
 15308 15304 15309 ar   
 15309 15305 15306 ar   
 15310 15305 15312 1    
 15311 15306 15313 1    
 15312 15306 15307 ar   
 15313 15307 15308 ar   
 15314 15308 15314 1    
 15315 15308 15309 ar   
 15316 15309 15315 1    
 15317 15310 15311 1    
 15318 15311 15319 1    
 15319 15311 15318 1    
 15320 15311 15320 1    
 15321 15321 15336 1    
 15322 15321 15327 1    
 15323 15322 15330 2    
 15324 15323 15324 1    
 15325 15323 15337 1    
 15326 15323 15330 am   BACKBONE|DICT|INTERRES
 15327 15324 15329 ar   
 15328 15324 15325 ar   
 15329 15325 15326 ar   
 15330 15325 15332 1    
 15331 15326 15327 ar   
 15332 15326 15333 1    
 15333 15327 15328 ar   
 15334 15328 15329 ar   
 15335 15328 15334 1    
 15336 15329 15335 1    
 15337 15330 15331 1    
 15338 15331 15338 1    
 15339 15331 15340 1    
 15340 15331 15339 1    
 15341 15341 15347 1    
 15342 15341 15356 1    
 15343 15342 15350 2    
 15344 15343 15350 am   BACKBONE|DICT|INTERRES
 15345 15343 15344 1    
 15346 15343 15357 1    
 15347 15344 15349 ar   
 15348 15344 15345 ar   
 15349 15345 15352 1    
 15350 15345 15346 ar   
 15351 15346 15353 1    
 15352 15346 15347 ar   
 15353 15347 15348 ar   
 15354 15348 15354 1    
 15355 15348 15349 ar   
 15356 15349 15355 1    
 15357 15350 15351 1    
 15358 15351 15358 1    
 15359 15351 15360 1    
 15360 15351 15359 1    
 15361 15361 15376 1    
 15362 15361 15367 1    
 15363 15362 15370 2    
 15364 15363 15377 1    
 15365 15363 15370 am   BACKBONE|DICT|INTERRES
 15366 15363 15364 1    
 15367 15364 15365 ar   
 15368 15364 15369 ar   
 15369 15365 15372 1    
 15370 15365 15366 ar   
 15371 15366 15367 ar   
 15372 15366 15373 1    
 15373 15367 15368 ar   
 15374 15368 15369 ar   
 15375 15368 15374 1    
 15376 15369 15375 1    
 15377 15370 15371 1    
 15378 15371 15379 1    
 15379 15371 15378 1    
 15380 15371 15380 1    
 15381 15381 15396 1    
 15382 15381 15387 1    
 15383 15382 15390 2    
 15384 15383 15384 1    
 15385 15383 15397 1    
 15386 15383 15390 am   BACKBONE|DICT|INTERRES
 15387 15384 15385 ar   
 15388 15384 15389 ar   
 15389 15385 15386 ar   
 15390 15385 15392 1    
 15391 15386 15393 1    
 15392 15386 15387 ar   
 15393 15387 15388 ar   
 15394 15388 15394 1    
 15395 15388 15389 ar   
 15396 15389 15395 1    
 15397 15390 15391 1    
 15398 15391 15399 1    
 15399 15391 15398 1    
 15400 15391 15400 1    
 15401 15401 15416 1    
 15402 15401 15407 1    
 15403 15402 15410 2    
 15404 15403 15404 1    
 15405 15403 15417 1    
 15406 15403 15410 am   BACKBONE|DICT|INTERRES
 15407 15404 15409 ar   
 15408 15404 15405 ar   
 15409 15405 15406 ar   
 15410 15405 15412 1    
 15411 15406 15407 ar   
 15412 15406 15413 1    
 15413 15407 15408 ar   
 15414 15408 15409 ar   
 15415 15408 15414 1    
 15416 15409 15415 1    
 15417 15410 15411 1    
 15418 15411 15418 1    
 15419 15411 15420 1    
 15420 15411 15419 1    
 15421 15421 15427 1    
 15422 15421 15436 1    
 15423 15422 15430 2    
 15424 15423 15430 am   BACKBONE|DICT|INTERRES
 15425 15423 15424 1    
 15426 15423 15437 1    
 15427 15424 15429 ar   
 15428 15424 15425 ar   
 15429 15425 15432 1    
 15430 15425 15426 ar   
 15431 15426 15433 1    
 15432 15426 15427 ar   
 15433 15427 15428 ar   
 15434 15428 15434 1    
 15435 15428 15429 ar   
 15436 15429 15435 1    
 15437 15430 15431 1    
 15438 15431 15438 1    
 15439 15431 15440 1    
 15440 15431 15439 1    
 15441 15441 15456 1    
 15442 15441 15447 1    
 15443 15442 15450 2    
 15444 15443 15457 1    
 15445 15443 15450 am   BACKBONE|DICT|INTERRES
 15446 15443 15444 1    
 15447 15444 15445 ar   
 15448 15444 15449 ar   
 15449 15445 15452 1    
 15450 15445 15446 ar   
 15451 15446 15447 ar   
 15452 15446 15453 1    
 15453 15447 15448 ar   
 15454 15448 15449 ar   
 15455 15448 15454 1    
 15456 15449 15455 1    
 15457 15450 15451 1    
 15458 15451 15459 1    
 15459 15451 15458 1    
 15460 15451 15460 1    
 15461 15461 15476 1    
 15462 15461 15467 1    
 15463 15462 15470 2    
 15464 15463 15464 1    
 15465 15463 15477 1    
 15466 15463 15470 am   BACKBONE|DICT|INTERRES
 15467 15464 15465 ar   
 15468 15464 15469 ar   
 15469 15465 15466 ar   
 15470 15465 15472 1    
 15471 15466 15473 1    
 15472 15466 15467 ar   
 15473 15467 15468 ar   
 15474 15468 15474 1    
 15475 15468 15469 ar   
 15476 15469 15475 1    
 15477 15470 15471 1    
 15478 15471 15479 1    
 15479 15471 15478 1    
 15480 15471 15480 1    
 15481 15481 15496 1    
 15482 15481 15487 1    
 15483 15482 15490 2    
 15484 15483 15484 1    
 15485 15483 15497 1    
 15486 15483 15490 am   BACKBONE|DICT|INTERRES
 15487 15484 15489 ar   
 15488 15484 15485 ar   
 15489 15485 15486 ar   
 15490 15485 15492 1    
 15491 15486 15487 ar   
 15492 15486 15493 1    
 15493 15487 15488 ar   
 15494 15488 15489 ar   
 15495 15488 15494 1    
 15496 15489 15495 1    
 15497 15490 15491 1    
 15498 15491 15498 1    
 15499 15491 15500 1    
 15500 15491 15499 1    
 15501 15501 15507 1    
 15502 15501 15516 1    
 15503 15502 15510 2    
 15504 15503 15510 am   BACKBONE|DICT|INTERRES
 15505 15503 15504 1    
 15506 15503 15517 1    
 15507 15504 15509 ar   
 15508 15504 15505 ar   
 15509 15505 15512 1    
 15510 15505 15506 ar   
 15511 15506 15513 1    
 15512 15506 15507 ar   
 15513 15507 15508 ar   
 15514 15508 15514 1    
 15515 15508 15509 ar   
 15516 15509 15515 1    
 15517 15510 15511 1    
 15518 15511 15518 1    
 15519 15511 15520 1    
 15520 15511 15519 1    
 15521 15521 15536 1    
 15522 15521 15527 1    
 15523 15522 15530 2    
 15524 15523 15537 1    
 15525 15523 15530 am   BACKBONE|DICT|INTERRES
 15526 15523 15524 1    
 15527 15524 15525 ar   
 15528 15524 15529 ar   
 15529 15525 15532 1    
 15530 15525 15526 ar   
 15531 15526 15527 ar   
 15532 15526 15533 1    
 15533 15527 15528 ar   
 15534 15528 15529 ar   
 15535 15528 15534 1    
 15536 15529 15535 1    
 15537 15530 15531 1    
 15538 15531 15539 1    
 15539 15531 15538 1    
 15540 15531 15540 1    
 15541 15541 15556 1    
 15542 15541 15547 1    
 15543 15542 15550 2    
 15544 15543 15544 1    
 15545 15543 15557 1    
 15546 15543 15550 am   BACKBONE|DICT|INTERRES
 15547 15544 15545 ar   
 15548 15544 15549 ar   
 15549 15545 15546 ar   
 15550 15545 15552 1    
 15551 15546 15553 1    
 15552 15546 15547 ar   
 15553 15547 15548 ar   
 15554 15548 15554 1    
 15555 15548 15549 ar   
 15556 15549 15555 1    
 15557 15550 15551 1    
 15558 15551 15559 1    
 15559 15551 15558 1    
 15560 15551 15560 1    
 15561 15561 15576 1    
 15562 15561 15567 1    
 15563 15562 15570 2    
 15564 15563 15564 1    
 15565 15563 15577 1    
 15566 15563 15570 am   BACKBONE|DICT|INTERRES
 15567 15564 15569 ar   
 15568 15564 15565 ar   
 15569 15565 15566 ar   
 15570 15565 15572 1    
 15571 15566 15567 ar   
 15572 15566 15573 1    
 15573 15567 15568 ar   
 15574 15568 15569 ar   
 15575 15568 15574 1    
 15576 15569 15575 1    
 15577 15570 15571 1    
 15578 15571 15578 1    
 15579 15571 15580 1    
 15580 15571 15579 1    
 15581 15581 15587 1    
 15582 15581 15596 1    
 15583 15582 15590 2    
 15584 15583 15590 am   BACKBONE|DICT|INTERRES
 15585 15583 15584 1    
 15586 15583 15597 1    
 15587 15584 15589 ar   
 15588 15584 15585 ar   
 15589 15585 15592 1    
 15590 15585 15586 ar   
 15591 15586 15593 1    
 15592 15586 15587 ar   
 15593 15587 15588 ar   
 15594 15588 15594 1    
 15595 15588 15589 ar   
 15596 15589 15595 1    
 15597 15590 15591 1    
 15598 15591 15598 1    
 15599 15591 15600 1    
 15600 15591 15599 1    
 15601 15601 15616 1    
 15602 15601 15607 1    
 15603 15602 15610 2    
 15604 15603 15617 1    
 15605 15603 15610 am   BACKBONE|DICT|INTERRES
 15606 15603 15604 1    
 15607 15604 15605 ar   
 15608 15604 15609 ar   
 15609 15605 15612 1    
 15610 15605 15606 ar   
 15611 15606 15607 ar   
 15612 15606 15613 1    
 15613 15607 15608 ar   
 15614 15608 15609 ar   
 15615 15608 15614 1    
 15616 15609 15615 1    
 15617 15610 15611 1    
 15618 15611 15619 1    
 15619 15611 15618 1    
 15620 15611 15620 1    
 15621 15621 15636 1    
 15622 15621 15627 1    
 15623 15622 15630 2    
 15624 15623 15624 1    
 15625 15623 15637 1    
 15626 15623 15630 am   BACKBONE|DICT|INTERRES
 15627 15624 15625 ar   
 15628 15624 15629 ar   
 15629 15625 15626 ar   
 15630 15625 15632 1    
 15631 15626 15633 1    
 15632 15626 15627 ar   
 15633 15627 15628 ar   
 15634 15628 15634 1    
 15635 15628 15629 ar   
 15636 15629 15635 1    
 15637 15630 15631 1    
 15638 15631 15639 1    
 15639 15631 15638 1    
 15640 15631 15640 1    
 15641 15641 15656 1    
 15642 15641 15647 1    
 15643 15642 15650 2    
 15644 15643 15644 1    
 15645 15643 15657 1    
 15646 15643 15650 am   BACKBONE|DICT|INTERRES
 15647 15644 15649 ar   
 15648 15644 15645 ar   
 15649 15645 15646 ar   
 15650 15645 15652 1    
 15651 15646 15647 ar   
 15652 15646 15653 1    
 15653 15647 15648 ar   
 15654 15648 15649 ar   
 15655 15648 15654 1    
 15656 15649 15655 1    
 15657 15650 15651 1    
 15658 15651 15658 1    
 15659 15651 15660 1    
 15660 15651 15659 1    
 15661 15661 15667 1    
 15662 15661 15676 1    
 15663 15662 15670 2    
 15664 15663 15670 am   BACKBONE|DICT|INTERRES
 15665 15663 15664 1    
 15666 15663 15677 1    
 15667 15664 15669 ar   
 15668 15664 15665 ar   
 15669 15665 15672 1    
 15670 15665 15666 ar   
 15671 15666 15673 1    
 15672 15666 15667 ar   
 15673 15667 15668 ar   
 15674 15668 15674 1    
 15675 15668 15669 ar   
 15676 15669 15675 1    
 15677 15670 15671 1    
 15678 15671 15678 1    
 15679 15671 15680 1    
 15680 15671 15679 1    
 15681 15681 15696 1    
 15682 15681 15687 1    
 15683 15682 15690 2    
 15684 15683 15697 1    
 15685 15683 15690 am   BACKBONE|DICT|INTERRES
 15686 15683 15684 1    
 15687 15684 15685 ar   
 15688 15684 15689 ar   
 15689 15685 15692 1    
 15690 15685 15686 ar   
 15691 15686 15687 ar   
 15692 15686 15693 1    
 15693 15687 15688 ar   
 15694 15688 15689 ar   
 15695 15688 15694 1    
 15696 15689 15695 1    
 15697 15690 15691 1    
 15698 15691 15699 1    
 15699 15691 15698 1    
 15700 15691 15700 1    
 15701 15701 15716 1    
 15702 15701 15707 1    
 15703 15702 15710 2    
 15704 15703 15704 1    
 15705 15703 15717 1    
 15706 15703 15710 am   BACKBONE|DICT|INTERRES
 15707 15704 15705 ar   
 15708 15704 15709 ar   
 15709 15705 15706 ar   
 15710 15705 15712 1    
 15711 15706 15713 1    
 15712 15706 15707 ar   
 15713 15707 15708 ar   
 15714 15708 15714 1    
 15715 15708 15709 ar   
 15716 15709 15715 1    
 15717 15710 15711 1    
 15718 15711 15719 1    
 15719 15711 15718 1    
 15720 15711 15720 1    
 15721 15721 15736 1    
 15722 15721 15727 1    
 15723 15722 15730 2    
 15724 15723 15724 1    
 15725 15723 15737 1    
 15726 15723 15730 am   BACKBONE|DICT|INTERRES
 15727 15724 15729 ar   
 15728 15724 15725 ar   
 15729 15725 15726 ar   
 15730 15725 15732 1    
 15731 15726 15727 ar   
 15732 15726 15733 1    
 15733 15727 15728 ar   
 15734 15728 15729 ar   
 15735 15728 15734 1    
 15736 15729 15735 1    
 15737 15730 15731 1    
 15738 15731 15738 1    
 15739 15731 15740 1    
 15740 15731 15739 1    
 15741 15741 15747 1    
 15742 15741 15756 1    
 15743 15742 15750 2    
 15744 15743 15750 am   BACKBONE|DICT|INTERRES
 15745 15743 15744 1    
 15746 15743 15757 1    
 15747 15744 15749 ar   
 15748 15744 15745 ar   
 15749 15745 15752 1    
 15750 15745 15746 ar   
 15751 15746 15753 1    
 15752 15746 15747 ar   
 15753 15747 15748 ar   
 15754 15748 15754 1    
 15755 15748 15749 ar   
 15756 15749 15755 1    
 15757 15750 15751 1    
 15758 15751 15758 1    
 15759 15751 15760 1    
 15760 15751 15759 1    
 15761 15761 15776 1    
 15762 15761 15767 1    
 15763 15762 15770 2    
 15764 15763 15777 1    
 15765 15763 15770 am   BACKBONE|DICT|INTERRES
 15766 15763 15764 1    
 15767 15764 15765 ar   
 15768 15764 15769 ar   
 15769 15765 15772 1    
 15770 15765 15766 ar   
 15771 15766 15767 ar   
 15772 15766 15773 1    
 15773 15767 15768 ar   
 15774 15768 15769 ar   
 15775 15768 15774 1    
 15776 15769 15775 1    
 15777 15770 15771 1    
 15778 15771 15779 1    
 15779 15771 15778 1    
 15780 15771 15780 1    
 15781 15781 15796 1    
 15782 15781 15787 1    
 15783 15782 15790 2    
 15784 15783 15784 1    
 15785 15783 15797 1    
 15786 15783 15790 am   BACKBONE|DICT|INTERRES
 15787 15784 15785 ar   
 15788 15784 15789 ar   
 15789 15785 15786 ar   
 15790 15785 15792 1    
 15791 15786 15793 1    
 15792 15786 15787 ar   
 15793 15787 15788 ar   
 15794 15788 15794 1    
 15795 15788 15789 ar   
 15796 15789 15795 1    
 15797 15790 15791 1    
 15798 15791 15799 1    
 15799 15791 15798 1    
 15800 15791 15800 1    
 15801 15801 15816 1    
 15802 15801 15807 1    
 15803 15802 15810 2    
 15804 15803 15804 1    
 15805 15803 15817 1    
 15806 15803 15810 am   BACKBONE|DICT|INTERRES
 15807 15804 15809 ar   
 15808 15804 15805 ar   
 15809 15805 15806 ar   
 15810 15805 15812 1    
 15811 15806 15807 ar   
 15812 15806 15813 1    
 15813 15807 15808 ar   
 15814 15808 15809 ar   
 15815 15808 15814 1    
 15816 15809 15815 1    
 15817 15810 15811 1    
 15818 15811 15818 1    
 15819 15811 15820 1    
 15820 15811 15819 1    
 15821 15821 15827 1    
 15822 15821 15836 1    
 15823 15822 15830 2    
 15824 15823 15830 am   BACKBONE|DICT|INTERRES
 15825 15823 15824 1    
 15826 15823 15837 1    
 15827 15824 15829 ar   
 15828 15824 15825 ar   
 15829 15825 15832 1    
 15830 15825 15826 ar   
 15831 15826 15833 1    
 15832 15826 15827 ar   
 15833 15827 15828 ar   
 15834 15828 15834 1    
 15835 15828 15829 ar   
 15836 15829 15835 1    
 15837 15830 15831 1    
 15838 15831 15838 1    
 15839 15831 15840 1    
 15840 15831 15839 1    
 15841 15841 15856 1    
 15842 15841 15847 1    
 15843 15842 15850 2    
 15844 15843 15857 1    
 15845 15843 15850 am   BACKBONE|DICT|INTERRES
 15846 15843 15844 1    
 15847 15844 15845 ar   
 15848 15844 15849 ar   
 15849 15845 15852 1    
 15850 15845 15846 ar   
 15851 15846 15847 ar   
 15852 15846 15853 1    
 15853 15847 15848 ar   
 15854 15848 15849 ar   
 15855 15848 15854 1    
 15856 15849 15855 1    
 15857 15850 15851 1    
 15858 15851 15859 1    
 15859 15851 15858 1    
 15860 15851 15860 1    
 15861 15861 15876 1    
 15862 15861 15867 1    
 15863 15862 15870 2    
 15864 15863 15864 1    
 15865 15863 15877 1    
 15866 15863 15870 am   BACKBONE|DICT|INTERRES
 15867 15864 15865 ar   
 15868 15864 15869 ar   
 15869 15865 15866 ar   
 15870 15865 15872 1    
 15871 15866 15873 1    
 15872 15866 15867 ar   
 15873 15867 15868 ar   
 15874 15868 15874 1    
 15875 15868 15869 ar   
 15876 15869 15875 1    
 15877 15870 15871 1    
 15878 15871 15879 1    
 15879 15871 15878 1    
 15880 15871 15880 1    
 15881 15881 15896 1    
 15882 15881 15887 1    
 15883 15882 15890 2    
 15884 15883 15884 1    
 15885 15883 15897 1    
 15886 15883 15890 am   BACKBONE|DICT|INTERRES
 15887 15884 15889 ar   
 15888 15884 15885 ar   
 15889 15885 15886 ar   
 15890 15885 15892 1    
 15891 15886 15887 ar   
 15892 15886 15893 1    
 15893 15887 15888 ar   
 15894 15888 15889 ar   
 15895 15888 15894 1    
 15896 15889 15895 1    
 15897 15890 15891 1    
 15898 15891 15898 1    
 15899 15891 15900 1    
 15900 15891 15899 1    
 15901 15901 15907 1    
 15902 15901 15916 1    
 15903 15902 15910 2    
 15904 15903 15910 am   BACKBONE|DICT|INTERRES
 15905 15903 15904 1    
 15906 15903 15917 1    
 15907 15904 15909 ar   
 15908 15904 15905 ar   
 15909 15905 15912 1    
 15910 15905 15906 ar   
 15911 15906 15913 1    
 15912 15906 15907 ar   
 15913 15907 15908 ar   
 15914 15908 15914 1    
 15915 15908 15909 ar   
 15916 15909 15915 1    
 15917 15910 15911 1    
 15918 15911 15918 1    
 15919 15911 15920 1    
 15920 15911 15919 1    
 15921 15921 15936 1    
 15922 15921 15927 1    
 15923 15922 15930 2    
 15924 15923 15937 1    
 15925 15923 15930 am   BACKBONE|DICT|INTERRES
 15926 15923 15924 1    
 15927 15924 15925 ar   
 15928 15924 15929 ar   
 15929 15925 15932 1    
 15930 15925 15926 ar   
 15931 15926 15927 ar   
 15932 15926 15933 1    
 15933 15927 15928 ar   
 15934 15928 15929 ar   
 15935 15928 15934 1    
 15936 15929 15935 1    
 15937 15930 15931 1    
 15938 15931 15939 1    
 15939 15931 15938 1    
 15940 15931 15940 1    
 15941 15941 15956 1    
 15942 15941 15947 1    
 15943 15942 15950 2    
 15944 15943 15944 1    
 15945 15943 15957 1    
 15946 15943 15950 am   BACKBONE|DICT|INTERRES
 15947 15944 15945 ar   
 15948 15944 15949 ar   
 15949 15945 15946 ar   
 15950 15945 15952 1    
 15951 15946 15953 1    
 15952 15946 15947 ar   
 15953 15947 15948 ar   
 15954 15948 15954 1    
 15955 15948 15949 ar   
 15956 15949 15955 1    
 15957 15950 15951 1    
 15958 15951 15959 1    
 15959 15951 15958 1    
 15960 15951 15960 1    
 15961 15961 15976 1    
 15962 15961 15967 1    
 15963 15962 15970 2    
 15964 15963 15964 1    
 15965 15963 15977 1    
 15966 15963 15970 am   BACKBONE|DICT|INTERRES
 15967 15964 15969 ar   
 15968 15964 15965 ar   
 15969 15965 15966 ar   
 15970 15965 15972 1    
 15971 15966 15967 ar   
 15972 15966 15973 1    
 15973 15967 15968 ar   
 15974 15968 15969 ar   
 15975 15968 15974 1    
 15976 15969 15975 1    
 15977 15970 15971 1    
 15978 15971 15978 1    
 15979 15971 15980 1    
 15980 15971 15979 1    
 15981 15981 15987 1    
 15982 15981 15996 1    
 15983 15982 15990 2    
 15984 15983 15990 am   BACKBONE|DICT|INTERRES
 15985 15983 15984 1    
 15986 15983 15997 1    
 15987 15984 15989 ar   
 15988 15984 15985 ar   
 15989 15985 15992 1    
 15990 15985 15986 ar   
 15991 15986 15993 1    
 15992 15986 15987 ar   
 15993 15987 15988 ar   
 15994 15988 15994 1    
 15995 15988 15989 ar   
 15996 15989 15995 1    
 15997 15990 15991 1    
 15998 15991 15998 1    
 15999 15991 16000 1    
 16000 15991 15999 1    
 16001 16001 16016 1    
 16002 16001 16007 1    
 16003 16002 16010 2    
 16004 16003 16017 1    
 16005 16003 16010 am   BACKBONE|DICT|INTERRES
 16006 16003 16004 1    
 16007 16004 16005 ar   
 16008 16004 16009 ar   
 16009 16005 16012 1    
 16010 16005 16006 ar   
 16011 16006 16007 ar   
 16012 16006 16013 1    
 16013 16007 16008 ar   
 16014 16008 16009 ar   
 16015 16008 16014 1    
 16016 16009 16015 1    
 16017 16010 16011 1    
 16018 16011 16019 1    
 16019 16011 16018 1    
 16020 16011 16020 1    
 16021 16021 16036 1    
 16022 16021 16027 1    
 16023 16022 16030 2    
 16024 16023 16024 1    
 16025 16023 16037 1    
 16026 16023 16030 am   BACKBONE|DICT|INTERRES
 16027 16024 16025 ar   
 16028 16024 16029 ar   
 16029 16025 16026 ar   
 16030 16025 16032 1    
 16031 16026 16033 1    
 16032 16026 16027 ar   
 16033 16027 16028 ar   
 16034 16028 16034 1    
 16035 16028 16029 ar   
 16036 16029 16035 1    
 16037 16030 16031 1    
 16038 16031 16039 1    
 16039 16031 16038 1    
 16040 16031 16040 1    
 16041 16041 16056 1    
 16042 16041 16047 1    
 16043 16042 16050 2    
 16044 16043 16044 1    
 16045 16043 16057 1    
 16046 16043 16050 am   BACKBONE|DICT|INTERRES
 16047 16044 16049 ar   
 16048 16044 16045 ar   
 16049 16045 16046 ar   
 16050 16045 16052 1    
 16051 16046 16047 ar   
 16052 16046 16053 1    
 16053 16047 16048 ar   
 16054 16048 16049 ar   
 16055 16048 16054 1    
 16056 16049 16055 1    
 16057 16050 16051 1    
 16058 16051 16058 1    
 16059 16051 16060 1    
 16060 16051 16059 1    
 16061 16061 16067 1    
 16062 16061 16076 1    
 16063 16062 16070 2    
 16064 16063 16070 am   BACKBONE|DICT|INTERRES
 16065 16063 16064 1    
 16066 16063 16077 1    
 16067 16064 16069 ar   
 16068 16064 16065 ar   
 16069 16065 16072 1    
 16070 16065 16066 ar   
 16071 16066 16073 1    
 16072 16066 16067 ar   
 16073 16067 16068 ar   
 16074 16068 16074 1    
 16075 16068 16069 ar   
 16076 16069 16075 1    
 16077 16070 16071 1    
 16078 16071 16078 1    
 16079 16071 16080 1    
 16080 16071 16079 1    
 16081 16081 16096 1    
 16082 16081 16087 1    
 16083 16082 16090 2    
 16084 16083 16097 1    
 16085 16083 16090 am   BACKBONE|DICT|INTERRES
 16086 16083 16084 1    
 16087 16084 16085 ar   
 16088 16084 16089 ar   
 16089 16085 16092 1    
 16090 16085 16086 ar   
 16091 16086 16087 ar   
 16092 16086 16093 1    
 16093 16087 16088 ar   
 16094 16088 16089 ar   
 16095 16088 16094 1    
 16096 16089 16095 1    
 16097 16090 16091 1    
 16098 16091 16099 1    
 16099 16091 16098 1    
 16100 16091 16100 1    
 16101 16101 16116 1    
 16102 16101 16107 1    
 16103 16102 16110 2    
 16104 16103 16104 1    
 16105 16103 16117 1    
 16106 16103 16110 am   BACKBONE|DICT|INTERRES
 16107 16104 16105 ar   
 16108 16104 16109 ar   
 16109 16105 16106 ar   
 16110 16105 16112 1    
 16111 16106 16113 1    
 16112 16106 16107 ar   
 16113 16107 16108 ar   
 16114 16108 16114 1    
 16115 16108 16109 ar   
 16116 16109 16115 1    
 16117 16110 16111 1    
 16118 16111 16119 1    
 16119 16111 16118 1    
 16120 16111 16120 1    
 16121 16121 16136 1    
 16122 16121 16127 1    
 16123 16122 16130 2    
 16124 16123 16124 1    
 16125 16123 16137 1    
 16126 16123 16130 am   BACKBONE|DICT|INTERRES
 16127 16124 16129 ar   
 16128 16124 16125 ar   
 16129 16125 16126 ar   
 16130 16125 16132 1    
 16131 16126 16127 ar   
 16132 16126 16133 1    
 16133 16127 16128 ar   
 16134 16128 16129 ar   
 16135 16128 16134 1    
 16136 16129 16135 1    
 16137 16130 16131 1    
 16138 16131 16138 1    
 16139 16131 16140 1    
 16140 16131 16139 1    
 16141 16141 16147 1    
 16142 16141 16156 1    
 16143 16142 16150 2    
 16144 16143 16150 am   BACKBONE|DICT|INTERRES
 16145 16143 16144 1    
 16146 16143 16157 1    
 16147 16144 16149 ar   
 16148 16144 16145 ar   
 16149 16145 16152 1    
 16150 16145 16146 ar   
 16151 16146 16153 1    
 16152 16146 16147 ar   
 16153 16147 16148 ar   
 16154 16148 16154 1    
 16155 16148 16149 ar   
 16156 16149 16155 1    
 16157 16150 16151 1    
 16158 16151 16158 1    
 16159 16151 16160 1    
 16160 16151 16159 1    
 16161 16161 16176 1    
 16162 16161 16167 1    
 16163 16162 16170 2    
 16164 16163 16177 1    
 16165 16163 16170 am   BACKBONE|DICT|INTERRES
 16166 16163 16164 1    
 16167 16164 16165 ar   
 16168 16164 16169 ar   
 16169 16165 16172 1    
 16170 16165 16166 ar   
 16171 16166 16167 ar   
 16172 16166 16173 1    
 16173 16167 16168 ar   
 16174 16168 16169 ar   
 16175 16168 16174 1    
 16176 16169 16175 1    
 16177 16170 16171 1    
 16178 16171 16179 1    
 16179 16171 16178 1    
 16180 16171 16180 1    
 16181 16181 16196 1    
 16182 16181 16187 1    
 16183 16182 16190 2    
 16184 16183 16184 1    
 16185 16183 16197 1    
 16186 16183 16190 am   BACKBONE|DICT|INTERRES
 16187 16184 16185 ar   
 16188 16184 16189 ar   
 16189 16185 16186 ar   
 16190 16185 16192 1    
 16191 16186 16193 1    
 16192 16186 16187 ar   
 16193 16187 16188 ar   
 16194 16188 16194 1    
 16195 16188 16189 ar   
 16196 16189 16195 1    
 16197 16190 16191 1    
 16198 16191 16199 1    
 16199 16191 16198 1    
 16200 16191 16200 1    
 16201 16201 16216 1    
 16202 16201 16207 1    
 16203 16202 16210 2    
 16204 16203 16204 1    
 16205 16203 16217 1    
 16206 16203 16210 am   BACKBONE|DICT|INTERRES
 16207 16204 16209 ar   
 16208 16204 16205 ar   
 16209 16205 16206 ar   
 16210 16205 16212 1    
 16211 16206 16207 ar   
 16212 16206 16213 1    
 16213 16207 16208 ar   
 16214 16208 16209 ar   
 16215 16208 16214 1    
 16216 16209 16215 1    
 16217 16210 16211 1    
 16218 16211 16218 1    
 16219 16211 16220 1    
 16220 16211 16219 1    
 16221 16221 16227 1    
 16222 16221 16236 1    
 16223 16222 16230 2    
 16224 16223 16230 am   BACKBONE|DICT|INTERRES
 16225 16223 16224 1    
 16226 16223 16237 1    
 16227 16224 16229 ar   
 16228 16224 16225 ar   
 16229 16225 16232 1    
 16230 16225 16226 ar   
 16231 16226 16233 1    
 16232 16226 16227 ar   
 16233 16227 16228 ar   
 16234 16228 16234 1    
 16235 16228 16229 ar   
 16236 16229 16235 1    
 16237 16230 16231 1    
 16238 16231 16238 1    
 16239 16231 16240 1    
 16240 16231 16239 1    
 16241 16241 16256 1    
 16242 16241 16247 1    
 16243 16242 16250 2    
 16244 16243 16257 1    
 16245 16243 16250 am   BACKBONE|DICT|INTERRES
 16246 16243 16244 1    
 16247 16244 16245 ar   
 16248 16244 16249 ar   
 16249 16245 16252 1    
 16250 16245 16246 ar   
 16251 16246 16247 ar   
 16252 16246 16253 1    
 16253 16247 16248 ar   
 16254 16248 16249 ar   
 16255 16248 16254 1    
 16256 16249 16255 1    
 16257 16250 16251 1    
 16258 16251 16259 1    
 16259 16251 16258 1    
 16260 16251 16260 1    
 16261 16261 16276 1    
 16262 16261 16267 1    
 16263 16262 16270 2    
 16264 16263 16264 1    
 16265 16263 16277 1    
 16266 16263 16270 am   BACKBONE|DICT|INTERRES
 16267 16264 16265 ar   
 16268 16264 16269 ar   
 16269 16265 16266 ar   
 16270 16265 16272 1    
 16271 16266 16273 1    
 16272 16266 16267 ar   
 16273 16267 16268 ar   
 16274 16268 16274 1    
 16275 16268 16269 ar   
 16276 16269 16275 1    
 16277 16270 16271 1    
 16278 16271 16279 1    
 16279 16271 16278 1    
 16280 16271 16280 1    
 16281 16281 16296 1    
 16282 16281 16287 1    
 16283 16282 16290 2    
 16284 16283 16284 1    
 16285 16283 16297 1    
 16286 16283 16290 am   BACKBONE|DICT|INTERRES
 16287 16284 16289 ar   
 16288 16284 16285 ar   
 16289 16285 16286 ar   
 16290 16285 16292 1    
 16291 16286 16287 ar   
 16292 16286 16293 1    
 16293 16287 16288 ar   
 16294 16288 16289 ar   
 16295 16288 16294 1    
 16296 16289 16295 1    
 16297 16290 16291 1    
 16298 16291 16298 1    
 16299 16291 16300 1    
 16300 16291 16299 1    
 16301 16301 16307 1    
 16302 16301 16316 1    
 16303 16302 16310 2    
 16304 16303 16310 am   BACKBONE|DICT|INTERRES
 16305 16303 16304 1    
 16306 16303 16317 1    
 16307 16304 16309 ar   
 16308 16304 16305 ar   
 16309 16305 16312 1    
 16310 16305 16306 ar   
 16311 16306 16313 1    
 16312 16306 16307 ar   
 16313 16307 16308 ar   
 16314 16308 16314 1    
 16315 16308 16309 ar   
 16316 16309 16315 1    
 16317 16310 16311 1    
 16318 16311 16318 1    
 16319 16311 16320 1    
 16320 16311 16319 1    
 16321 16321 16336 1    
 16322 16321 16327 1    
 16323 16322 16330 2    
 16324 16323 16337 1    
 16325 16323 16330 am   BACKBONE|DICT|INTERRES
 16326 16323 16324 1    
 16327 16324 16325 ar   
 16328 16324 16329 ar   
 16329 16325 16332 1    
 16330 16325 16326 ar   
 16331 16326 16327 ar   
 16332 16326 16333 1    
 16333 16327 16328 ar   
 16334 16328 16329 ar   
 16335 16328 16334 1    
 16336 16329 16335 1    
 16337 16330 16331 1    
 16338 16331 16339 1    
 16339 16331 16338 1    
 16340 16331 16340 1    
 16341 16341 16356 1    
 16342 16341 16347 1    
 16343 16342 16350 2    
 16344 16343 16344 1    
 16345 16343 16357 1    
 16346 16343 16350 am   BACKBONE|DICT|INTERRES
 16347 16344 16345 ar   
 16348 16344 16349 ar   
 16349 16345 16346 ar   
 16350 16345 16352 1    
 16351 16346 16353 1    
 16352 16346 16347 ar   
 16353 16347 16348 ar   
 16354 16348 16354 1    
 16355 16348 16349 ar   
 16356 16349 16355 1    
 16357 16350 16351 1    
 16358 16351 16359 1    
 16359 16351 16358 1    
 16360 16351 16360 1    
 16361 16361 16376 1    
 16362 16361 16367 1    
 16363 16362 16370 2    
 16364 16363 16364 1    
 16365 16363 16377 1    
 16366 16363 16370 am   BACKBONE|DICT|INTERRES
 16367 16364 16369 ar   
 16368 16364 16365 ar   
 16369 16365 16366 ar   
 16370 16365 16372 1    
 16371 16366 16367 ar   
 16372 16366 16373 1    
 16373 16367 16368 ar   
 16374 16368 16369 ar   
 16375 16368 16374 1    
 16376 16369 16375 1    
 16377 16370 16371 1    
 16378 16371 16378 1    
 16379 16371 16380 1    
 16380 16371 16379 1    
 16381 16381 16387 1    
 16382 16381 16396 1    
 16383 16382 16390 2    
 16384 16383 16390 am   BACKBONE|DICT|INTERRES
 16385 16383 16384 1    
 16386 16383 16397 1    
 16387 16384 16389 ar   
 16388 16384 16385 ar   
 16389 16385 16392 1    
 16390 16385 16386 ar   
 16391 16386 16393 1    
 16392 16386 16387 ar   
 16393 16387 16388 ar   
 16394 16388 16394 1    
 16395 16388 16389 ar   
 16396 16389 16395 1    
 16397 16390 16391 1    
 16398 16391 16398 1    
 16399 16391 16400 1    
 16400 16391 16399 1    
 16401 16401 16416 1    
 16402 16401 16407 1    
 16403 16402 16410 2    
 16404 16403 16417 1    
 16405 16403 16410 am   BACKBONE|DICT|INTERRES
 16406 16403 16404 1    
 16407 16404 16405 ar   
 16408 16404 16409 ar   
 16409 16405 16412 1    
 16410 16405 16406 ar   
 16411 16406 16407 ar   
 16412 16406 16413 1    
 16413 16407 16408 ar   
 16414 16408 16409 ar   
 16415 16408 16414 1    
 16416 16409 16415 1    
 16417 16410 16411 1    
 16418 16411 16419 1    
 16419 16411 16418 1    
 16420 16411 16420 1    
 16421 16421 16436 1    
 16422 16421 16427 1    
 16423 16422 16430 2    
 16424 16423 16424 1    
 16425 16423 16437 1    
 16426 16423 16430 am   BACKBONE|DICT|INTERRES
 16427 16424 16425 ar   
 16428 16424 16429 ar   
 16429 16425 16426 ar   
 16430 16425 16432 1    
 16431 16426 16433 1    
 16432 16426 16427 ar   
 16433 16427 16428 ar   
 16434 16428 16434 1    
 16435 16428 16429 ar   
 16436 16429 16435 1    
 16437 16430 16431 1    
 16438 16431 16439 1    
 16439 16431 16438 1    
 16440 16431 16440 1    
 16441 16441 16456 1    
 16442 16441 16447 1    
 16443 16442 16450 2    
 16444 16443 16444 1    
 16445 16443 16457 1    
 16446 16443 16450 am   BACKBONE|DICT|INTERRES
 16447 16444 16449 ar   
 16448 16444 16445 ar   
 16449 16445 16446 ar   
 16450 16445 16452 1    
 16451 16446 16447 ar   
 16452 16446 16453 1    
 16453 16447 16448 ar   
 16454 16448 16449 ar   
 16455 16448 16454 1    
 16456 16449 16455 1    
 16457 16450 16451 1    
 16458 16451 16458 1    
 16459 16451 16460 1    
 16460 16451 16459 1    
 16461 16461 16467 1    
 16462 16461 16476 1    
 16463 16462 16470 2    
 16464 16463 16470 am   BACKBONE|DICT|INTERRES
 16465 16463 16464 1    
 16466 16463 16477 1    
 16467 16464 16469 ar   
 16468 16464 16465 ar   
 16469 16465 16472 1    
 16470 16465 16466 ar   
 16471 16466 16473 1    
 16472 16466 16467 ar   
 16473 16467 16468 ar   
 16474 16468 16474 1    
 16475 16468 16469 ar   
 16476 16469 16475 1    
 16477 16470 16471 1    
 16478 16471 16478 1    
 16479 16471 16480 1    
 16480 16471 16479 1    
 16481 16481 16496 1    
 16482 16481 16487 1    
 16483 16482 16490 2    
 16484 16483 16497 1    
 16485 16483 16490 am   BACKBONE|DICT|INTERRES
 16486 16483 16484 1    
 16487 16484 16485 ar   
 16488 16484 16489 ar   
 16489 16485 16492 1    
 16490 16485 16486 ar   
 16491 16486 16487 ar   
 16492 16486 16493 1    
 16493 16487 16488 ar   
 16494 16488 16489 ar   
 16495 16488 16494 1    
 16496 16489 16495 1    
 16497 16490 16491 1    
 16498 16491 16499 1    
 16499 16491 16498 1    
 16500 16491 16500 1    
 16501 16501 16516 1    
 16502 16501 16507 1    
 16503 16502 16510 2    
 16504 16503 16504 1    
 16505 16503 16517 1    
 16506 16503 16510 am   BACKBONE|DICT|INTERRES
 16507 16504 16505 ar   
 16508 16504 16509 ar   
 16509 16505 16506 ar   
 16510 16505 16512 1    
 16511 16506 16513 1    
 16512 16506 16507 ar   
 16513 16507 16508 ar   
 16514 16508 16514 1    
 16515 16508 16509 ar   
 16516 16509 16515 1    
 16517 16510 16511 1    
 16518 16511 16519 1    
 16519 16511 16518 1    
 16520 16511 16520 1    
 16521 16521 16536 1    
 16522 16521 16527 1    
 16523 16522 16530 2    
 16524 16523 16524 1    
 16525 16523 16537 1    
 16526 16523 16530 am   BACKBONE|DICT|INTERRES
 16527 16524 16529 ar   
 16528 16524 16525 ar   
 16529 16525 16526 ar   
 16530 16525 16532 1    
 16531 16526 16527 ar   
 16532 16526 16533 1    
 16533 16527 16528 ar   
 16534 16528 16529 ar   
 16535 16528 16534 1    
 16536 16529 16535 1    
 16537 16530 16531 1    
 16538 16531 16538 1    
 16539 16531 16540 1    
 16540 16531 16539 1    
 16541 16541 16547 1    
 16542 16541 16556 1    
 16543 16542 16550 2    
 16544 16543 16550 am   BACKBONE|DICT|INTERRES
 16545 16543 16544 1    
 16546 16543 16557 1    
 16547 16544 16549 ar   
 16548 16544 16545 ar   
 16549 16545 16552 1    
 16550 16545 16546 ar   
 16551 16546 16553 1    
 16552 16546 16547 ar   
 16553 16547 16548 ar   
 16554 16548 16554 1    
 16555 16548 16549 ar   
 16556 16549 16555 1    
 16557 16550 16551 1    
 16558 16551 16558 1    
 16559 16551 16560 1    
 16560 16551 16559 1    
 16561 16561 16576 1    
 16562 16561 16567 1    
 16563 16562 16570 2    
 16564 16563 16577 1    
 16565 16563 16570 am   BACKBONE|DICT|INTERRES
 16566 16563 16564 1    
 16567 16564 16565 ar   
 16568 16564 16569 ar   
 16569 16565 16572 1    
 16570 16565 16566 ar   
 16571 16566 16567 ar   
 16572 16566 16573 1    
 16573 16567 16568 ar   
 16574 16568 16569 ar   
 16575 16568 16574 1    
 16576 16569 16575 1    
 16577 16570 16571 1    
 16578 16571 16579 1    
 16579 16571 16578 1    
 16580 16571 16580 1    
 16581 16581 16596 1    
 16582 16581 16587 1    
 16583 16582 16590 2    
 16584 16583 16584 1    
 16585 16583 16597 1    
 16586 16583 16590 am   BACKBONE|DICT|INTERRES
 16587 16584 16585 ar   
 16588 16584 16589 ar   
 16589 16585 16586 ar   
 16590 16585 16592 1    
 16591 16586 16593 1    
 16592 16586 16587 ar   
 16593 16587 16588 ar   
 16594 16588 16594 1    
 16595 16588 16589 ar   
 16596 16589 16595 1    
 16597 16590 16591 1    
 16598 16591 16599 1    
 16599 16591 16598 1    
 16600 16591 16600 1    
 16601 16601 16616 1    
 16602 16601 16607 1    
 16603 16602 16610 2    
 16604 16603 16604 1    
 16605 16603 16617 1    
 16606 16603 16610 am   BACKBONE|DICT|INTERRES
 16607 16604 16609 ar   
 16608 16604 16605 ar   
 16609 16605 16606 ar   
 16610 16605 16612 1    
 16611 16606 16607 ar   
 16612 16606 16613 1    
 16613 16607 16608 ar   
 16614 16608 16609 ar   
 16615 16608 16614 1    
 16616 16609 16615 1    
 16617 16610 16611 1    
 16618 16611 16618 1    
 16619 16611 16620 1    
 16620 16611 16619 1    
 16621 16621 16627 1    
 16622 16621 16636 1    
 16623 16622 16630 2    
 16624 16623 16630 am   BACKBONE|DICT|INTERRES
 16625 16623 16624 1    
 16626 16623 16637 1    
 16627 16624 16629 ar   
 16628 16624 16625 ar   
 16629 16625 16632 1    
 16630 16625 16626 ar   
 16631 16626 16633 1    
 16632 16626 16627 ar   
 16633 16627 16628 ar   
 16634 16628 16634 1    
 16635 16628 16629 ar   
 16636 16629 16635 1    
 16637 16630 16631 1    
 16638 16631 16638 1    
 16639 16631 16640 1    
 16640 16631 16639 1    
 16641 16641 16656 1    
 16642 16641 16647 1    
 16643 16642 16650 2    
 16644 16643 16657 1    
 16645 16643 16650 am   BACKBONE|DICT|INTERRES
 16646 16643 16644 1    
 16647 16644 16645 ar   
 16648 16644 16649 ar   
 16649 16645 16652 1    
 16650 16645 16646 ar   
 16651 16646 16647 ar   
 16652 16646 16653 1    
 16653 16647 16648 ar   
 16654 16648 16649 ar   
 16655 16648 16654 1    
 16656 16649 16655 1    
 16657 16650 16651 1    
 16658 16651 16659 1    
 16659 16651 16658 1    
 16660 16651 16660 1    
 16661 16661 16676 1    
 16662 16661 16667 1    
 16663 16662 16670 2    
 16664 16663 16664 1    
 16665 16663 16677 1    
 16666 16663 16670 am   BACKBONE|DICT|INTERRES
 16667 16664 16665 ar   
 16668 16664 16669 ar   
 16669 16665 16666 ar   
 16670 16665 16672 1    
 16671 16666 16673 1    
 16672 16666 16667 ar   
 16673 16667 16668 ar   
 16674 16668 16674 1    
 16675 16668 16669 ar   
 16676 16669 16675 1    
 16677 16670 16671 1    
 16678 16671 16679 1    
 16679 16671 16678 1    
 16680 16671 16680 1    
 16681 16681 16696 1    
 16682 16681 16687 1    
 16683 16682 16690 2    
 16684 16683 16684 1    
 16685 16683 16697 1    
 16686 16683 16690 am   BACKBONE|DICT|INTERRES
 16687 16684 16689 ar   
 16688 16684 16685 ar   
 16689 16685 16686 ar   
 16690 16685 16692 1    
 16691 16686 16687 ar   
 16692 16686 16693 1    
 16693 16687 16688 ar   
 16694 16688 16689 ar   
 16695 16688 16694 1    
 16696 16689 16695 1    
 16697 16690 16691 1    
 16698 16691 16698 1    
 16699 16691 16700 1    
 16700 16691 16699 1    
 16701 16701 16707 1    
 16702 16701 16716 1    
 16703 16702 16710 2    
 16704 16703 16710 am   BACKBONE|DICT|INTERRES
 16705 16703 16704 1    
 16706 16703 16717 1    
 16707 16704 16709 ar   
 16708 16704 16705 ar   
 16709 16705 16712 1    
 16710 16705 16706 ar   
 16711 16706 16713 1    
 16712 16706 16707 ar   
 16713 16707 16708 ar   
 16714 16708 16714 1    
 16715 16708 16709 ar   
 16716 16709 16715 1    
 16717 16710 16711 1    
 16718 16711 16718 1    
 16719 16711 16720 1    
 16720 16711 16719 1    
 16721 16721 16736 1    
 16722 16721 16727 1    
 16723 16722 16730 2    
 16724 16723 16737 1    
 16725 16723 16730 am   BACKBONE|DICT|INTERRES
 16726 16723 16724 1    
 16727 16724 16725 ar   
 16728 16724 16729 ar   
 16729 16725 16732 1    
 16730 16725 16726 ar   
 16731 16726 16727 ar   
 16732 16726 16733 1    
 16733 16727 16728 ar   
 16734 16728 16729 ar   
 16735 16728 16734 1    
 16736 16729 16735 1    
 16737 16730 16731 1    
 16738 16731 16739 1    
 16739 16731 16738 1    
 16740 16731 16740 1    
 16741 16741 16756 1    
 16742 16741 16747 1    
 16743 16742 16750 2    
 16744 16743 16744 1    
 16745 16743 16757 1    
 16746 16743 16750 am   BACKBONE|DICT|INTERRES
 16747 16744 16745 ar   
 16748 16744 16749 ar   
 16749 16745 16746 ar   
 16750 16745 16752 1    
 16751 16746 16753 1    
 16752 16746 16747 ar   
 16753 16747 16748 ar   
 16754 16748 16754 1    
 16755 16748 16749 ar   
 16756 16749 16755 1    
 16757 16750 16751 1    
 16758 16751 16759 1    
 16759 16751 16758 1    
 16760 16751 16760 1    
 16761 16761 16776 1    
 16762 16761 16767 1    
 16763 16762 16770 2    
 16764 16763 16764 1    
 16765 16763 16777 1    
 16766 16763 16770 am   BACKBONE|DICT|INTERRES
 16767 16764 16769 ar   
 16768 16764 16765 ar   
 16769 16765 16766 ar   
 16770 16765 16772 1    
 16771 16766 16767 ar   
 16772 16766 16773 1    
 16773 16767 16768 ar   
 16774 16768 16769 ar   
 16775 16768 16774 1    
 16776 16769 16775 1    
 16777 16770 16771 1    
 16778 16771 16778 1    
 16779 16771 16780 1    
 16780 16771 16779 1    
 16781 16781 16787 1    
 16782 16781 16796 1    
 16783 16782 16790 2    
 16784 16783 16790 am   BACKBONE|DICT|INTERRES
 16785 16783 16784 1    
 16786 16783 16797 1    
 16787 16784 16789 ar   
 16788 16784 16785 ar   
 16789 16785 16792 1    
 16790 16785 16786 ar   
 16791 16786 16793 1    
 16792 16786 16787 ar   
 16793 16787 16788 ar   
 16794 16788 16794 1    
 16795 16788 16789 ar   
 16796 16789 16795 1    
 16797 16790 16791 1    
 16798 16791 16798 1    
 16799 16791 16800 1    
 16800 16791 16799 1    
 16801 16801 16816 1    
 16802 16801 16807 1    
 16803 16802 16810 2    
 16804 16803 16817 1    
 16805 16803 16810 am   BACKBONE|DICT|INTERRES
 16806 16803 16804 1    
 16807 16804 16805 ar   
 16808 16804 16809 ar   
 16809 16805 16812 1    
 16810 16805 16806 ar   
 16811 16806 16807 ar   
 16812 16806 16813 1    
 16813 16807 16808 ar   
 16814 16808 16809 ar   
 16815 16808 16814 1    
 16816 16809 16815 1    
 16817 16810 16811 1    
 16818 16811 16819 1    
 16819 16811 16818 1    
 16820 16811 16820 1    
 16821 16821 16836 1    
 16822 16821 16827 1    
 16823 16822 16830 2    
 16824 16823 16824 1    
 16825 16823 16837 1    
 16826 16823 16830 am   BACKBONE|DICT|INTERRES
 16827 16824 16825 ar   
 16828 16824 16829 ar   
 16829 16825 16826 ar   
 16830 16825 16832 1    
 16831 16826 16833 1    
 16832 16826 16827 ar   
 16833 16827 16828 ar   
 16834 16828 16834 1    
 16835 16828 16829 ar   
 16836 16829 16835 1    
 16837 16830 16831 1    
 16838 16831 16839 1    
 16839 16831 16838 1    
 16840 16831 16840 1    
 16841 16841 16856 1    
 16842 16841 16847 1    
 16843 16842 16850 2    
 16844 16843 16844 1    
 16845 16843 16857 1    
 16846 16843 16850 am   BACKBONE|DICT|INTERRES
 16847 16844 16849 ar   
 16848 16844 16845 ar   
 16849 16845 16846 ar   
 16850 16845 16852 1    
 16851 16846 16847 ar   
 16852 16846 16853 1    
 16853 16847 16848 ar   
 16854 16848 16849 ar   
 16855 16848 16854 1    
 16856 16849 16855 1    
 16857 16850 16851 1    
 16858 16851 16858 1    
 16859 16851 16860 1    
 16860 16851 16859 1    
 16861 16861 16867 1    
 16862 16861 16876 1    
 16863 16862 16870 2    
 16864 16863 16870 am   BACKBONE|DICT|INTERRES
 16865 16863 16864 1    
 16866 16863 16877 1    
 16867 16864 16869 ar   
 16868 16864 16865 ar   
 16869 16865 16872 1    
 16870 16865 16866 ar   
 16871 16866 16873 1    
 16872 16866 16867 ar   
 16873 16867 16868 ar   
 16874 16868 16874 1    
 16875 16868 16869 ar   
 16876 16869 16875 1    
 16877 16870 16871 1    
 16878 16871 16878 1    
 16879 16871 16880 1    
 16880 16871 16879 1    
 16881 16881 16896 1    
 16882 16881 16887 1    
 16883 16882 16890 2    
 16884 16883 16897 1    
 16885 16883 16890 am   BACKBONE|DICT|INTERRES
 16886 16883 16884 1    
 16887 16884 16885 ar   
 16888 16884 16889 ar   
 16889 16885 16892 1    
 16890 16885 16886 ar   
 16891 16886 16887 ar   
 16892 16886 16893 1    
 16893 16887 16888 ar   
 16894 16888 16889 ar   
 16895 16888 16894 1    
 16896 16889 16895 1    
 16897 16890 16891 1    
 16898 16891 16899 1    
 16899 16891 16898 1    
 16900 16891 16900 1    
 16901 16901 16916 1    
 16902 16901 16907 1    
 16903 16902 16910 2    
 16904 16903 16904 1    
 16905 16903 16917 1    
 16906 16903 16910 am   BACKBONE|DICT|INTERRES
 16907 16904 16905 ar   
 16908 16904 16909 ar   
 16909 16905 16906 ar   
 16910 16905 16912 1    
 16911 16906 16913 1    
 16912 16906 16907 ar   
 16913 16907 16908 ar   
 16914 16908 16914 1    
 16915 16908 16909 ar   
 16916 16909 16915 1    
 16917 16910 16911 1    
 16918 16911 16919 1    
 16919 16911 16918 1    
 16920 16911 16920 1    
 16921 16921 16936 1    
 16922 16921 16927 1    
 16923 16922 16930 2    
 16924 16923 16924 1    
 16925 16923 16937 1    
 16926 16923 16930 am   BACKBONE|DICT|INTERRES
 16927 16924 16929 ar   
 16928 16924 16925 ar   
 16929 16925 16926 ar   
 16930 16925 16932 1    
 16931 16926 16927 ar   
 16932 16926 16933 1    
 16933 16927 16928 ar   
 16934 16928 16929 ar   
 16935 16928 16934 1    
 16936 16929 16935 1    
 16937 16930 16931 1    
 16938 16931 16938 1    
 16939 16931 16940 1    
 16940 16931 16939 1    
 16941 16941 16947 1    
 16942 16941 16956 1    
 16943 16942 16950 2    
 16944 16943 16950 am   BACKBONE|DICT|INTERRES
 16945 16943 16944 1    
 16946 16943 16957 1    
 16947 16944 16949 ar   
 16948 16944 16945 ar   
 16949 16945 16952 1    
 16950 16945 16946 ar   
 16951 16946 16953 1    
 16952 16946 16947 ar   
 16953 16947 16948 ar   
 16954 16948 16954 1    
 16955 16948 16949 ar   
 16956 16949 16955 1    
 16957 16950 16951 1    
 16958 16951 16958 1    
 16959 16951 16960 1    
 16960 16951 16959 1    
 16961 16961 16976 1    
 16962 16961 16967 1    
 16963 16962 16970 2    
 16964 16963 16977 1    
 16965 16963 16970 am   BACKBONE|DICT|INTERRES
 16966 16963 16964 1    
 16967 16964 16965 ar   
 16968 16964 16969 ar   
 16969 16965 16972 1    
 16970 16965 16966 ar   
 16971 16966 16967 ar   
 16972 16966 16973 1    
 16973 16967 16968 ar   
 16974 16968 16969 ar   
 16975 16968 16974 1    
 16976 16969 16975 1    
 16977 16970 16971 1    
 16978 16971 16979 1    
 16979 16971 16978 1    
 16980 16971 16980 1    
 16981 16981 16996 1    
 16982 16981 16987 1    
 16983 16982 16990 2    
 16984 16983 16984 1    
 16985 16983 16997 1    
 16986 16983 16990 am   BACKBONE|DICT|INTERRES
 16987 16984 16985 ar   
 16988 16984 16989 ar   
 16989 16985 16986 ar   
 16990 16985 16992 1    
 16991 16986 16993 1    
 16992 16986 16987 ar   
 16993 16987 16988 ar   
 16994 16988 16994 1    
 16995 16988 16989 ar   
 16996 16989 16995 1    
 16997 16990 16991 1    
 16998 16991 16999 1    
 16999 16991 16998 1    
 17000 16991 17000 1    
 17001 17001 17016 1    
 17002 17001 17007 1    
 17003 17002 17010 2    
 17004 17003 17004 1    
 17005 17003 17017 1    
 17006 17003 17010 am   BACKBONE|DICT|INTERRES
 17007 17004 17009 ar   
 17008 17004 17005 ar   
 17009 17005 17006 ar   
 17010 17005 17012 1    
 17011 17006 17007 ar   
 17012 17006 17013 1    
 17013 17007 17008 ar   
 17014 17008 17009 ar   
 17015 17008 17014 1    
 17016 17009 17015 1    
 17017 17010 17011 1    
 17018 17011 17018 1    
 17019 17011 17020 1    
 17020 17011 17019 1    
 17021 17021 17027 1    
 17022 17021 17036 1    
 17023 17022 17030 2    
 17024 17023 17030 am   BACKBONE|DICT|INTERRES
 17025 17023 17024 1    
 17026 17023 17037 1    
 17027 17024 17029 ar   
 17028 17024 17025 ar   
 17029 17025 17032 1    
 17030 17025 17026 ar   
 17031 17026 17033 1    
 17032 17026 17027 ar   
 17033 17027 17028 ar   
 17034 17028 17034 1    
 17035 17028 17029 ar   
 17036 17029 17035 1    
 17037 17030 17031 1    
 17038 17031 17038 1    
 17039 17031 17040 1    
 17040 17031 17039 1    
 17041 17041 17056 1    
 17042 17041 17047 1    
 17043 17042 17050 2    
 17044 17043 17057 1    
 17045 17043 17050 am   BACKBONE|DICT|INTERRES
 17046 17043 17044 1    
 17047 17044 17045 ar   
 17048 17044 17049 ar   
 17049 17045 17052 1    
 17050 17045 17046 ar   
 17051 17046 17047 ar   
 17052 17046 17053 1    
 17053 17047 17048 ar   
 17054 17048 17049 ar   
 17055 17048 17054 1    
 17056 17049 17055 1    
 17057 17050 17051 1    
 17058 17051 17059 1    
 17059 17051 17058 1    
 17060 17051 17060 1    
 17061 17061 17076 1    
 17062 17061 17067 1    
 17063 17062 17070 2    
 17064 17063 17064 1    
 17065 17063 17077 1    
 17066 17063 17070 am   BACKBONE|DICT|INTERRES
 17067 17064 17065 ar   
 17068 17064 17069 ar   
 17069 17065 17066 ar   
 17070 17065 17072 1    
 17071 17066 17073 1    
 17072 17066 17067 ar   
 17073 17067 17068 ar   
 17074 17068 17074 1    
 17075 17068 17069 ar   
 17076 17069 17075 1    
 17077 17070 17071 1    
 17078 17071 17079 1    
 17079 17071 17078 1    
 17080 17071 17080 1    
 17081 17081 17096 1    
 17082 17081 17087 1    
 17083 17082 17090 2    
 17084 17083 17084 1    
 17085 17083 17097 1    
 17086 17083 17090 am   BACKBONE|DICT|INTERRES
 17087 17084 17089 ar   
 17088 17084 17085 ar   
 17089 17085 17086 ar   
 17090 17085 17092 1    
 17091 17086 17087 ar   
 17092 17086 17093 1    
 17093 17087 17088 ar   
 17094 17088 17089 ar   
 17095 17088 17094 1    
 17096 17089 17095 1    
 17097 17090 17091 1    
 17098 17091 17098 1    
 17099 17091 17100 1    
 17100 17091 17099 1    
 17101 17101 17107 1    
 17102 17101 17116 1    
 17103 17102 17110 2    
 17104 17103 17110 am   BACKBONE|DICT|INTERRES
 17105 17103 17104 1    
 17106 17103 17117 1    
 17107 17104 17109 ar   
 17108 17104 17105 ar   
 17109 17105 17112 1    
 17110 17105 17106 ar   
 17111 17106 17113 1    
 17112 17106 17107 ar   
 17113 17107 17108 ar   
 17114 17108 17114 1    
 17115 17108 17109 ar   
 17116 17109 17115 1    
 17117 17110 17111 1    
 17118 17111 17118 1    
 17119 17111 17120 1    
 17120 17111 17119 1    
 17121 17121 17136 1    
 17122 17121 17127 1    
 17123 17122 17130 2    
 17124 17123 17137 1    
 17125 17123 17130 am   BACKBONE|DICT|INTERRES
 17126 17123 17124 1    
 17127 17124 17125 ar   
 17128 17124 17129 ar   
 17129 17125 17132 1    
 17130 17125 17126 ar   
 17131 17126 17127 ar   
 17132 17126 17133 1    
 17133 17127 17128 ar   
 17134 17128 17129 ar   
 17135 17128 17134 1    
 17136 17129 17135 1    
 17137 17130 17131 1    
 17138 17131 17139 1    
 17139 17131 17138 1    
 17140 17131 17140 1    
 17141 17141 17156 1    
 17142 17141 17147 1    
 17143 17142 17150 2    
 17144 17143 17144 1    
 17145 17143 17157 1    
 17146 17143 17150 am   BACKBONE|DICT|INTERRES
 17147 17144 17145 ar   
 17148 17144 17149 ar   
 17149 17145 17146 ar   
 17150 17145 17152 1    
 17151 17146 17153 1    
 17152 17146 17147 ar   
 17153 17147 17148 ar   
 17154 17148 17154 1    
 17155 17148 17149 ar   
 17156 17149 17155 1    
 17157 17150 17151 1    
 17158 17151 17159 1    
 17159 17151 17158 1    
 17160 17151 17160 1    
 17161 17161 17176 1    
 17162 17161 17167 1    
 17163 17162 17170 2    
 17164 17163 17164 1    
 17165 17163 17177 1    
 17166 17163 17170 am   BACKBONE|DICT|INTERRES
 17167 17164 17169 ar   
 17168 17164 17165 ar   
 17169 17165 17166 ar   
 17170 17165 17172 1    
 17171 17166 17167 ar   
 17172 17166 17173 1    
 17173 17167 17168 ar   
 17174 17168 17169 ar   
 17175 17168 17174 1    
 17176 17169 17175 1    
 17177 17170 17171 1    
 17178 17171 17178 1    
 17179 17171 17180 1    
 17180 17171 17179 1    
 17181 17181 17187 1    
 17182 17181 17196 1    
 17183 17182 17190 2    
 17184 17183 17190 am   BACKBONE|DICT|INTERRES
 17185 17183 17184 1    
 17186 17183 17197 1    
 17187 17184 17189 ar   
 17188 17184 17185 ar   
 17189 17185 17192 1    
 17190 17185 17186 ar   
 17191 17186 17193 1    
 17192 17186 17187 ar   
 17193 17187 17188 ar   
 17194 17188 17194 1    
 17195 17188 17189 ar   
 17196 17189 17195 1    
 17197 17190 17191 1    
 17198 17191 17198 1    
 17199 17191 17200 1    
 17200 17191 17199 1    
 17201 17201 17216 1    
 17202 17201 17207 1    
 17203 17202 17210 2    
 17204 17203 17217 1    
 17205 17203 17210 am   BACKBONE|DICT|INTERRES
 17206 17203 17204 1    
 17207 17204 17205 ar   
 17208 17204 17209 ar   
 17209 17205 17212 1    
 17210 17205 17206 ar   
 17211 17206 17207 ar   
 17212 17206 17213 1    
 17213 17207 17208 ar   
 17214 17208 17209 ar   
 17215 17208 17214 1    
 17216 17209 17215 1    
 17217 17210 17211 1    
 17218 17211 17219 1    
 17219 17211 17218 1    
 17220 17211 17220 1    
 17221 17221 17236 1    
 17222 17221 17227 1    
 17223 17222 17230 2    
 17224 17223 17224 1    
 17225 17223 17237 1    
 17226 17223 17230 am   BACKBONE|DICT|INTERRES
 17227 17224 17225 ar   
 17228 17224 17229 ar   
 17229 17225 17226 ar   
 17230 17225 17232 1    
 17231 17226 17233 1    
 17232 17226 17227 ar   
 17233 17227 17228 ar   
 17234 17228 17234 1    
 17235 17228 17229 ar   
 17236 17229 17235 1    
 17237 17230 17231 1    
 17238 17231 17239 1    
 17239 17231 17238 1    
 17240 17231 17240 1    
 17241 17241 17256 1    
 17242 17241 17247 1    
 17243 17242 17250 2    
 17244 17243 17244 1    
 17245 17243 17257 1    
 17246 17243 17250 am   BACKBONE|DICT|INTERRES
 17247 17244 17249 ar   
 17248 17244 17245 ar   
 17249 17245 17246 ar   
 17250 17245 17252 1    
 17251 17246 17247 ar   
 17252 17246 17253 1    
 17253 17247 17248 ar   
 17254 17248 17249 ar   
 17255 17248 17254 1    
 17256 17249 17255 1    
 17257 17250 17251 1    
 17258 17251 17258 1    
 17259 17251 17260 1    
 17260 17251 17259 1    
 17261 17261 17267 1    
 17262 17261 17276 1    
 17263 17262 17270 2    
 17264 17263 17270 am   BACKBONE|DICT|INTERRES
 17265 17263 17264 1    
 17266 17263 17277 1    
 17267 17264 17269 ar   
 17268 17264 17265 ar   
 17269 17265 17272 1    
 17270 17265 17266 ar   
 17271 17266 17273 1    
 17272 17266 17267 ar   
 17273 17267 17268 ar   
 17274 17268 17274 1    
 17275 17268 17269 ar   
 17276 17269 17275 1    
 17277 17270 17271 1    
 17278 17271 17278 1    
 17279 17271 17280 1    
 17280 17271 17279 1    
 17281 17281 17296 1    
 17282 17281 17287 1    
 17283 17282 17290 2    
 17284 17283 17297 1    
 17285 17283 17290 am   BACKBONE|DICT|INTERRES
 17286 17283 17284 1    
 17287 17284 17285 ar   
 17288 17284 17289 ar   
 17289 17285 17292 1    
 17290 17285 17286 ar   
 17291 17286 17287 ar   
 17292 17286 17293 1    
 17293 17287 17288 ar   
 17294 17288 17289 ar   
 17295 17288 17294 1    
 17296 17289 17295 1    
 17297 17290 17291 1    
 17298 17291 17299 1    
 17299 17291 17298 1    
 17300 17291 17300 1    
 17301 17301 17316 1    
 17302 17301 17307 1    
 17303 17302 17310 2    
 17304 17303 17304 1    
 17305 17303 17317 1    
 17306 17303 17310 am   BACKBONE|DICT|INTERRES
 17307 17304 17305 ar   
 17308 17304 17309 ar   
 17309 17305 17306 ar   
 17310 17305 17312 1    
 17311 17306 17313 1    
 17312 17306 17307 ar   
 17313 17307 17308 ar   
 17314 17308 17314 1    
 17315 17308 17309 ar   
 17316 17309 17315 1    
 17317 17310 17311 1    
 17318 17311 17319 1    
 17319 17311 17318 1    
 17320 17311 17320 1    
 17321 17321 17336 1    
 17322 17321 17327 1    
 17323 17322 17330 2    
 17324 17323 17324 1    
 17325 17323 17337 1    
 17326 17323 17330 am   BACKBONE|DICT|INTERRES
 17327 17324 17329 ar   
 17328 17324 17325 ar   
 17329 17325 17326 ar   
 17330 17325 17332 1    
 17331 17326 17327 ar   
 17332 17326 17333 1    
 17333 17327 17328 ar   
 17334 17328 17329 ar   
 17335 17328 17334 1    
 17336 17329 17335 1    
 17337 17330 17331 1    
 17338 17331 17338 1    
 17339 17331 17340 1    
 17340 17331 17339 1    
 17341 17341 17347 1    
 17342 17341 17356 1    
 17343 17342 17350 2    
 17344 17343 17350 am   BACKBONE|DICT|INTERRES
 17345 17343 17344 1    
 17346 17343 17357 1    
 17347 17344 17349 ar   
 17348 17344 17345 ar   
 17349 17345 17352 1    
 17350 17345 17346 ar   
 17351 17346 17353 1    
 17352 17346 17347 ar   
 17353 17347 17348 ar   
 17354 17348 17354 1    
 17355 17348 17349 ar   
 17356 17349 17355 1    
 17357 17350 17351 1    
 17358 17351 17358 1    
 17359 17351 17360 1    
 17360 17351 17359 1    
 17361 17361 17376 1    
 17362 17361 17367 1    
 17363 17362 17370 2    
 17364 17363 17377 1    
 17365 17363 17370 am   BACKBONE|DICT|INTERRES
 17366 17363 17364 1    
 17367 17364 17365 ar   
 17368 17364 17369 ar   
 17369 17365 17372 1    
 17370 17365 17366 ar   
 17371 17366 17367 ar   
 17372 17366 17373 1    
 17373 17367 17368 ar   
 17374 17368 17369 ar   
 17375 17368 17374 1    
 17376 17369 17375 1    
 17377 17370 17371 1    
 17378 17371 17379 1    
 17379 17371 17378 1    
 17380 17371 17380 1    
 17381 17381 17396 1    
 17382 17381 17387 1    
 17383 17382 17390 2    
 17384 17383 17384 1    
 17385 17383 17397 1    
 17386 17383 17390 am   BACKBONE|DICT|INTERRES
 17387 17384 17385 ar   
 17388 17384 17389 ar   
 17389 17385 17386 ar   
 17390 17385 17392 1    
 17391 17386 17393 1    
 17392 17386 17387 ar   
 17393 17387 17388 ar   
 17394 17388 17394 1    
 17395 17388 17389 ar   
 17396 17389 17395 1    
 17397 17390 17391 1    
 17398 17391 17399 1    
 17399 17391 17398 1    
 17400 17391 17400 1    
 17401 17401 17416 1    
 17402 17401 17407 1    
 17403 17402 17410 2    
 17404 17403 17404 1    
 17405 17403 17417 1    
 17406 17403 17410 am   BACKBONE|DICT|INTERRES
 17407 17404 17409 ar   
 17408 17404 17405 ar   
 17409 17405 17406 ar   
 17410 17405 17412 1    
 17411 17406 17407 ar   
 17412 17406 17413 1    
 17413 17407 17408 ar   
 17414 17408 17409 ar   
 17415 17408 17414 1    
 17416 17409 17415 1    
 17417 17410 17411 1    
 17418 17411 17418 1    
 17419 17411 17420 1    
 17420 17411 17419 1    
 17421 17421 17427 1    
 17422 17421 17436 1    
 17423 17422 17430 2    
 17424 17423 17430 am   BACKBONE|DICT|INTERRES
 17425 17423 17424 1    
 17426 17423 17437 1    
 17427 17424 17429 ar   
 17428 17424 17425 ar   
 17429 17425 17432 1    
 17430 17425 17426 ar   
 17431 17426 17433 1    
 17432 17426 17427 ar   
 17433 17427 17428 ar   
 17434 17428 17434 1    
 17435 17428 17429 ar   
 17436 17429 17435 1    
 17437 17430 17431 1    
 17438 17431 17438 1    
 17439 17431 17440 1    
 17440 17431 17439 1    
 17441 17441 17456 1    
 17442 17441 17447 1    
 17443 17442 17450 2    
 17444 17443 17457 1    
 17445 17443 17450 am   BACKBONE|DICT|INTERRES
 17446 17443 17444 1    
 17447 17444 17445 ar   
 17448 17444 17449 ar   
 17449 17445 17452 1    
 17450 17445 17446 ar   
 17451 17446 17447 ar   
 17452 17446 17453 1    
 17453 17447 17448 ar   
 17454 17448 17449 ar   
 17455 17448 17454 1    
 17456 17449 17455 1    
 17457 17450 17451 1    
 17458 17451 17459 1    
 17459 17451 17458 1    
 17460 17451 17460 1    
 17461 17461 17476 1    
 17462 17461 17467 1    
 17463 17462 17470 2    
 17464 17463 17464 1    
 17465 17463 17477 1    
 17466 17463 17470 am   BACKBONE|DICT|INTERRES
 17467 17464 17465 ar   
 17468 17464 17469 ar   
 17469 17465 17466 ar   
 17470 17465 17472 1    
 17471 17466 17473 1    
 17472 17466 17467 ar   
 17473 17467 17468 ar   
 17474 17468 17474 1    
 17475 17468 17469 ar   
 17476 17469 17475 1    
 17477 17470 17471 1    
 17478 17471 17479 1    
 17479 17471 17478 1    
 17480 17471 17480 1    
 17481 17481 17496 1    
 17482 17481 17487 1    
 17483 17482 17490 2    
 17484 17483 17484 1    
 17485 17483 17497 1    
 17486 17483 17490 am   BACKBONE|DICT|INTERRES
 17487 17484 17489 ar   
 17488 17484 17485 ar   
 17489 17485 17486 ar   
 17490 17485 17492 1    
 17491 17486 17487 ar   
 17492 17486 17493 1    
 17493 17487 17488 ar   
 17494 17488 17489 ar   
 17495 17488 17494 1    
 17496 17489 17495 1    
 17497 17490 17491 1    
 17498 17491 17498 1    
 17499 17491 17500 1    
 17500 17491 17499 1    
 17501 17501 17507 1    
 17502 17501 17516 1    
 17503 17502 17510 2    
 17504 17503 17510 am   BACKBONE|DICT|INTERRES
 17505 17503 17504 1    
 17506 17503 17517 1    
 17507 17504 17509 ar   
 17508 17504 17505 ar   
 17509 17505 17512 1    
 17510 17505 17506 ar   
 17511 17506 17513 1    
 17512 17506 17507 ar   
 17513 17507 17508 ar   
 17514 17508 17514 1    
 17515 17508 17509 ar   
 17516 17509 17515 1    
 17517 17510 17511 1    
 17518 17511 17518 1    
 17519 17511 17520 1    
 17520 17511 17519 1    
 17521 17521 17536 1    
 17522 17521 17527 1    
 17523 17522 17530 2    
 17524 17523 17537 1    
 17525 17523 17530 am   BACKBONE|DICT|INTERRES
 17526 17523 17524 1    
 17527 17524 17525 ar   
 17528 17524 17529 ar   
 17529 17525 17532 1    
 17530 17525 17526 ar   
 17531 17526 17527 ar   
 17532 17526 17533 1    
 17533 17527 17528 ar   
 17534 17528 17529 ar   
 17535 17528 17534 1    
 17536 17529 17535 1    
 17537 17530 17531 1    
 17538 17531 17539 1    
 17539 17531 17538 1    
 17540 17531 17540 1    
 17541 17541 17556 1    
 17542 17541 17547 1    
 17543 17542 17550 2    
 17544 17543 17544 1    
 17545 17543 17557 1    
 17546 17543 17550 am   BACKBONE|DICT|INTERRES
 17547 17544 17545 ar   
 17548 17544 17549 ar   
 17549 17545 17546 ar   
 17550 17545 17552 1    
 17551 17546 17553 1    
 17552 17546 17547 ar   
 17553 17547 17548 ar   
 17554 17548 17554 1    
 17555 17548 17549 ar   
 17556 17549 17555 1    
 17557 17550 17551 1    
 17558 17551 17559 1    
 17559 17551 17558 1    
 17560 17551 17560 1    
 17561 17561 17576 1    
 17562 17561 17567 1    
 17563 17562 17570 2    
 17564 17563 17564 1    
 17565 17563 17577 1    
 17566 17563 17570 am   BACKBONE|DICT|INTERRES
 17567 17564 17569 ar   
 17568 17564 17565 ar   
 17569 17565 17566 ar   
 17570 17565 17572 1    
 17571 17566 17567 ar   
 17572 17566 17573 1    
 17573 17567 17568 ar   
 17574 17568 17569 ar   
 17575 17568 17574 1    
 17576 17569 17575 1    
 17577 17570 17571 1    
 17578 17571 17578 1    
 17579 17571 17580 1    
 17580 17571 17579 1    
 17581 17581 17587 1    
 17582 17581 17596 1    
 17583 17582 17590 2    
 17584 17583 17590 am   BACKBONE|DICT|INTERRES
 17585 17583 17584 1    
 17586 17583 17597 1    
 17587 17584 17589 ar   
 17588 17584 17585 ar   
 17589 17585 17592 1    
 17590 17585 17586 ar   
 17591 17586 17593 1    
 17592 17586 17587 ar   
 17593 17587 17588 ar   
 17594 17588 17594 1    
 17595 17588 17589 ar   
 17596 17589 17595 1    
 17597 17590 17591 1    
 17598 17591 17598 1    
 17599 17591 17600 1    
 17600 17591 17599 1    
 17601 17601 17616 1    
 17602 17601 17607 1    
 17603 17602 17610 2    
 17604 17603 17617 1    
 17605 17603 17610 am   BACKBONE|DICT|INTERRES
 17606 17603 17604 1    
 17607 17604 17605 ar   
 17608 17604 17609 ar   
 17609 17605 17612 1    
 17610 17605 17606 ar   
 17611 17606 17607 ar   
 17612 17606 17613 1    
 17613 17607 17608 ar   
 17614 17608 17609 ar   
 17615 17608 17614 1    
 17616 17609 17615 1    
 17617 17610 17611 1    
 17618 17611 17619 1    
 17619 17611 17618 1    
 17620 17611 17620 1    
 17621 17621 17636 1    
 17622 17621 17627 1    
 17623 17622 17630 2    
 17624 17623 17624 1    
 17625 17623 17637 1    
 17626 17623 17630 am   BACKBONE|DICT|INTERRES
 17627 17624 17625 ar   
 17628 17624 17629 ar   
 17629 17625 17626 ar   
 17630 17625 17632 1    
 17631 17626 17633 1    
 17632 17626 17627 ar   
 17633 17627 17628 ar   
 17634 17628 17634 1    
 17635 17628 17629 ar   
 17636 17629 17635 1    
 17637 17630 17631 1    
 17638 17631 17639 1    
 17639 17631 17638 1    
 17640 17631 17640 1    
 17641 17641 17656 1    
 17642 17641 17647 1    
 17643 17642 17650 2    
 17644 17643 17644 1    
 17645 17643 17657 1    
 17646 17643 17650 am   BACKBONE|DICT|INTERRES
 17647 17644 17649 ar   
 17648 17644 17645 ar   
 17649 17645 17646 ar   
 17650 17645 17652 1    
 17651 17646 17647 ar   
 17652 17646 17653 1    
 17653 17647 17648 ar   
 17654 17648 17649 ar   
 17655 17648 17654 1    
 17656 17649 17655 1    
 17657 17650 17651 1    
 17658 17651 17658 1    
 17659 17651 17660 1    
 17660 17651 17659 1    
 17661 17661 17667 1    
 17662 17661 17676 1    
 17663 17662 17670 2    
 17664 17663 17670 am   BACKBONE|DICT|INTERRES
 17665 17663 17664 1    
 17666 17663 17677 1    
 17667 17664 17669 ar   
 17668 17664 17665 ar   
 17669 17665 17672 1    
 17670 17665 17666 ar   
 17671 17666 17673 1    
 17672 17666 17667 ar   
 17673 17667 17668 ar   
 17674 17668 17674 1    
 17675 17668 17669 ar   
 17676 17669 17675 1    
 17677 17670 17671 1    
 17678 17671 17678 1    
 17679 17671 17680 1    
 17680 17671 17679 1    
 17681 17681 17696 1    
 17682 17681 17687 1    
 17683 17682 17690 2    
 17684 17683 17697 1    
 17685 17683 17690 am   BACKBONE|DICT|INTERRES
 17686 17683 17684 1    
 17687 17684 17685 ar   
 17688 17684 17689 ar   
 17689 17685 17692 1    
 17690 17685 17686 ar   
 17691 17686 17687 ar   
 17692 17686 17693 1    
 17693 17687 17688 ar   
 17694 17688 17689 ar   
 17695 17688 17694 1    
 17696 17689 17695 1    
 17697 17690 17691 1    
 17698 17691 17699 1    
 17699 17691 17698 1    
 17700 17691 17700 1    
 17701 17701 17716 1    
 17702 17701 17707 1    
 17703 17702 17710 2    
 17704 17703 17704 1    
 17705 17703 17717 1    
 17706 17703 17710 am   BACKBONE|DICT|INTERRES
 17707 17704 17705 ar   
 17708 17704 17709 ar   
 17709 17705 17706 ar   
 17710 17705 17712 1    
 17711 17706 17713 1    
 17712 17706 17707 ar   
 17713 17707 17708 ar   
 17714 17708 17714 1    
 17715 17708 17709 ar   
 17716 17709 17715 1    
 17717 17710 17711 1    
 17718 17711 17719 1    
 17719 17711 17718 1    
 17720 17711 17720 1    
 17721 17721 17736 1    
 17722 17721 17727 1    
 17723 17722 17730 2    
 17724 17723 17724 1    
 17725 17723 17737 1    
 17726 17723 17730 am   BACKBONE|DICT|INTERRES
 17727 17724 17729 ar   
 17728 17724 17725 ar   
 17729 17725 17726 ar   
 17730 17725 17732 1    
 17731 17726 17727 ar   
 17732 17726 17733 1    
 17733 17727 17728 ar   
 17734 17728 17729 ar   
 17735 17728 17734 1    
 17736 17729 17735 1    
 17737 17730 17731 1    
 17738 17731 17738 1    
 17739 17731 17740 1    
 17740 17731 17739 1    
 17741 17741 17747 1    
 17742 17741 17756 1    
 17743 17742 17750 2    
 17744 17743 17750 am   BACKBONE|DICT|INTERRES
 17745 17743 17744 1    
 17746 17743 17757 1    
 17747 17744 17749 ar   
 17748 17744 17745 ar   
 17749 17745 17752 1    
 17750 17745 17746 ar   
 17751 17746 17753 1    
 17752 17746 17747 ar   
 17753 17747 17748 ar   
 17754 17748 17754 1    
 17755 17748 17749 ar   
 17756 17749 17755 1    
 17757 17750 17751 1    
 17758 17751 17758 1    
 17759 17751 17760 1    
 17760 17751 17759 1    
 17761 17761 17776 1    
 17762 17761 17767 1    
 17763 17762 17770 2    
 17764 17763 17777 1    
 17765 17763 17770 am   BACKBONE|DICT|INTERRES
 17766 17763 17764 1    
 17767 17764 17765 ar   
 17768 17764 17769 ar   
 17769 17765 17772 1    
 17770 17765 17766 ar   
 17771 17766 17767 ar   
 17772 17766 17773 1    
 17773 17767 17768 ar   
 17774 17768 17769 ar   
 17775 17768 17774 1    
 17776 17769 17775 1    
 17777 17770 17771 1    
 17778 17771 17779 1    
 17779 17771 17778 1    
 17780 17771 17780 1    
 17781 17781 17796 1    
 17782 17781 17787 1    
 17783 17782 17790 2    
 17784 17783 17784 1    
 17785 17783 17797 1    
 17786 17783 17790 am   BACKBONE|DICT|INTERRES
 17787 17784 17785 ar   
 17788 17784 17789 ar   
 17789 17785 17786 ar   
 17790 17785 17792 1    
 17791 17786 17793 1    
 17792 17786 17787 ar   
 17793 17787 17788 ar   
 17794 17788 17794 1    
 17795 17788 17789 ar   
 17796 17789 17795 1    
 17797 17790 17791 1    
 17798 17791 17799 1    
 17799 17791 17798 1    
 17800 17791 17800 1    
 17801 17801 17816 1    
 17802 17801 17807 1    
 17803 17802 17810 2    
 17804 17803 17804 1    
 17805 17803 17817 1    
 17806 17803 17810 am   BACKBONE|DICT|INTERRES
 17807 17804 17809 ar   
 17808 17804 17805 ar   
 17809 17805 17806 ar   
 17810 17805 17812 1    
 17811 17806 17807 ar   
 17812 17806 17813 1    
 17813 17807 17808 ar   
 17814 17808 17809 ar   
 17815 17808 17814 1    
 17816 17809 17815 1    
 17817 17810 17811 1    
 17818 17811 17818 1    
 17819 17811 17820 1    
 17820 17811 17819 1    
 17821 17821 17827 1    
 17822 17821 17836 1    
 17823 17822 17830 2    
 17824 17823 17830 am   BACKBONE|DICT|INTERRES
 17825 17823 17824 1    
 17826 17823 17837 1    
 17827 17824 17829 ar   
 17828 17824 17825 ar   
 17829 17825 17832 1    
 17830 17825 17826 ar   
 17831 17826 17833 1    
 17832 17826 17827 ar   
 17833 17827 17828 ar   
 17834 17828 17834 1    
 17835 17828 17829 ar   
 17836 17829 17835 1    
 17837 17830 17831 1    
 17838 17831 17838 1    
 17839 17831 17840 1    
 17840 17831 17839 1    
 17841 17841 17856 1    
 17842 17841 17847 1    
 17843 17842 17850 2    
 17844 17843 17857 1    
 17845 17843 17850 am   BACKBONE|DICT|INTERRES
 17846 17843 17844 1    
 17847 17844 17845 ar   
 17848 17844 17849 ar   
 17849 17845 17852 1    
 17850 17845 17846 ar   
 17851 17846 17847 ar   
 17852 17846 17853 1    
 17853 17847 17848 ar   
 17854 17848 17849 ar   
 17855 17848 17854 1    
 17856 17849 17855 1    
 17857 17850 17851 1    
 17858 17851 17859 1    
 17859 17851 17858 1    
 17860 17851 17860 1    
 17861 17861 17876 1    
 17862 17861 17867 1    
 17863 17862 17870 2    
 17864 17863 17864 1    
 17865 17863 17877 1    
 17866 17863 17870 am   BACKBONE|DICT|INTERRES
 17867 17864 17865 ar   
 17868 17864 17869 ar   
 17869 17865 17866 ar   
 17870 17865 17872 1    
 17871 17866 17873 1    
 17872 17866 17867 ar   
 17873 17867 17868 ar   
 17874 17868 17874 1    
 17875 17868 17869 ar   
 17876 17869 17875 1    
 17877 17870 17871 1    
 17878 17871 17879 1    
 17879 17871 17878 1    
 17880 17871 17880 1    
 17881 17881 17896 1    
 17882 17881 17887 1    
 17883 17882 17890 2    
 17884 17883 17884 1    
 17885 17883 17897 1    
 17886 17883 17890 am   BACKBONE|DICT|INTERRES
 17887 17884 17889 ar   
 17888 17884 17885 ar   
 17889 17885 17886 ar   
 17890 17885 17892 1    
 17891 17886 17887 ar   
 17892 17886 17893 1    
 17893 17887 17888 ar   
 17894 17888 17889 ar   
 17895 17888 17894 1    
 17896 17889 17895 1    
 17897 17890 17891 1    
 17898 17891 17898 1    
 17899 17891 17900 1    
 17900 17891 17899 1    
 17901 17901 17907 1    
 17902 17901 17916 1    
 17903 17902 17910 2    
 17904 17903 17910 am   BACKBONE|DICT|INTERRES
 17905 17903 17904 1    
 17906 17903 17917 1    
 17907 17904 17909 ar   
 17908 17904 17905 ar   
 17909 17905 17912 1    
 17910 17905 17906 ar   
 17911 17906 17913 1    
 17912 17906 17907 ar   
 17913 17907 17908 ar   
 17914 17908 17914 1    
 17915 17908 17909 ar   
 17916 17909 17915 1    
 17917 17910 17911 1    
 17918 17911 17918 1    
 17919 17911 17920 1    
 17920 17911 17919 1    
 17921 17921 17936 1    
 17922 17921 17927 1    
 17923 17922 17930 2    
 17924 17923 17937 1    
 17925 17923 17930 am   BACKBONE|DICT|INTERRES
 17926 17923 17924 1    
 17927 17924 17925 ar   
 17928 17924 17929 ar   
 17929 17925 17932 1    
 17930 17925 17926 ar   
 17931 17926 17927 ar   
 17932 17926 17933 1    
 17933 17927 17928 ar   
 17934 17928 17929 ar   
 17935 17928 17934 1    
 17936 17929 17935 1    
 17937 17930 17931 1    
 17938 17931 17939 1    
 17939 17931 17938 1    
 17940 17931 17940 1    
 17941 17941 17956 1    
 17942 17941 17947 1    
 17943 17942 17950 2    
 17944 17943 17944 1    
 17945 17943 17957 1    
 17946 17943 17950 am   BACKBONE|DICT|INTERRES
 17947 17944 17945 ar   
 17948 17944 17949 ar   
 17949 17945 17946 ar   
 17950 17945 17952 1    
 17951 17946 17953 1    
 17952 17946 17947 ar   
 17953 17947 17948 ar   
 17954 17948 17954 1    
 17955 17948 17949 ar   
 17956 17949 17955 1    
 17957 17950 17951 1    
 17958 17951 17959 1    
 17959 17951 17958 1    
 17960 17951 17960 1    
 17961 17961 17976 1    
 17962 17961 17967 1    
 17963 17962 17970 2    
 17964 17963 17964 1    
 17965 17963 17977 1    
 17966 17963 17970 am   BACKBONE|DICT|INTERRES
 17967 17964 17969 ar   
 17968 17964 17965 ar   
 17969 17965 17966 ar   
 17970 17965 17972 1    
 17971 17966 17967 ar   
 17972 17966 17973 1    
 17973 17967 17968 ar   
 17974 17968 17969 ar   
 17975 17968 17974 1    
 17976 17969 17975 1    
 17977 17970 17971 1    
 17978 17971 17978 1    
 17979 17971 17980 1    
 17980 17971 17979 1    
 17981 17981 17987 1    
 17982 17981 17996 1    
 17983 17982 17990 2    
 17984 17983 17990 am   BACKBONE|DICT|INTERRES
 17985 17983 17984 1    
 17986 17983 17997 1    
 17987 17984 17989 ar   
 17988 17984 17985 ar   
 17989 17985 17992 1    
 17990 17985 17986 ar   
 17991 17986 17993 1    
 17992 17986 17987 ar   
 17993 17987 17988 ar   
 17994 17988 17994 1    
 17995 17988 17989 ar   
 17996 17989 17995 1    
 17997 17990 17991 1    
 17998 17991 17998 1    
 17999 17991 18000 1    
 18000 17991 17999 1    
 18001 18001 18016 1    
 18002 18001 18007 1    
 18003 18002 18010 2    
 18004 18003 18017 1    
 18005 18003 18010 am   BACKBONE|DICT|INTERRES
 18006 18003 18004 1    
 18007 18004 18005 ar   
 18008 18004 18009 ar   
 18009 18005 18012 1    
 18010 18005 18006 ar   
 18011 18006 18007 ar   
 18012 18006 18013 1    
 18013 18007 18008 ar   
 18014 18008 18009 ar   
 18015 18008 18014 1    
 18016 18009 18015 1    
 18017 18010 18011 1    
 18018 18011 18019 1    
 18019 18011 18018 1    
 18020 18011 18020 1    
 18021 18021 18036 1    
 18022 18021 18027 1    
 18023 18022 18030 2    
 18024 18023 18024 1    
 18025 18023 18037 1    
 18026 18023 18030 am   BACKBONE|DICT|INTERRES
 18027 18024 18025 ar   
 18028 18024 18029 ar   
 18029 18025 18026 ar   
 18030 18025 18032 1    
 18031 18026 18033 1    
 18032 18026 18027 ar   
 18033 18027 18028 ar   
 18034 18028 18034 1    
 18035 18028 18029 ar   
 18036 18029 18035 1    
 18037 18030 18031 1    
 18038 18031 18039 1    
 18039 18031 18038 1    
 18040 18031 18040 1    
 18041 18041 18056 1    
 18042 18041 18047 1    
 18043 18042 18050 2    
 18044 18043 18044 1    
 18045 18043 18057 1    
 18046 18043 18050 am   BACKBONE|DICT|INTERRES
 18047 18044 18049 ar   
 18048 18044 18045 ar   
 18049 18045 18046 ar   
 18050 18045 18052 1    
 18051 18046 18047 ar   
 18052 18046 18053 1    
 18053 18047 18048 ar   
 18054 18048 18049 ar   
 18055 18048 18054 1    
 18056 18049 18055 1    
 18057 18050 18051 1    
 18058 18051 18058 1    
 18059 18051 18060 1    
 18060 18051 18059 1    
 18061 18061 18067 1    
 18062 18061 18076 1    
 18063 18062 18070 2    
 18064 18063 18070 am   BACKBONE|DICT|INTERRES
 18065 18063 18064 1    
 18066 18063 18077 1    
 18067 18064 18069 ar   
 18068 18064 18065 ar   
 18069 18065 18072 1    
 18070 18065 18066 ar   
 18071 18066 18073 1    
 18072 18066 18067 ar   
 18073 18067 18068 ar   
 18074 18068 18074 1    
 18075 18068 18069 ar   
 18076 18069 18075 1    
 18077 18070 18071 1    
 18078 18071 18078 1    
 18079 18071 18080 1    
 18080 18071 18079 1    
 18081 18081 18096 1    
 18082 18081 18087 1    
 18083 18082 18090 2    
 18084 18083 18097 1    
 18085 18083 18090 am   BACKBONE|DICT|INTERRES
 18086 18083 18084 1    
 18087 18084 18085 ar   
 18088 18084 18089 ar   
 18089 18085 18092 1    
 18090 18085 18086 ar   
 18091 18086 18087 ar   
 18092 18086 18093 1    
 18093 18087 18088 ar   
 18094 18088 18089 ar   
 18095 18088 18094 1    
 18096 18089 18095 1    
 18097 18090 18091 1    
 18098 18091 18099 1    
 18099 18091 18098 1    
 18100 18091 18100 1    
 18101 18101 18116 1    
 18102 18101 18107 1    
 18103 18102 18110 2    
 18104 18103 18104 1    
 18105 18103 18117 1    
 18106 18103 18110 am   BACKBONE|DICT|INTERRES
 18107 18104 18105 ar   
 18108 18104 18109 ar   
 18109 18105 18106 ar   
 18110 18105 18112 1    
 18111 18106 18113 1    
 18112 18106 18107 ar   
 18113 18107 18108 ar   
 18114 18108 18114 1    
 18115 18108 18109 ar   
 18116 18109 18115 1    
 18117 18110 18111 1    
 18118 18111 18119 1    
 18119 18111 18118 1    
 18120 18111 18120 1    
 18121 18121 18136 1    
 18122 18121 18127 1    
 18123 18122 18130 2    
 18124 18123 18124 1    
 18125 18123 18137 1    
 18126 18123 18130 am   BACKBONE|DICT|INTERRES
 18127 18124 18129 ar   
 18128 18124 18125 ar   
 18129 18125 18126 ar   
 18130 18125 18132 1    
 18131 18126 18127 ar   
 18132 18126 18133 1    
 18133 18127 18128 ar   
 18134 18128 18129 ar   
 18135 18128 18134 1    
 18136 18129 18135 1    
 18137 18130 18131 1    
 18138 18131 18138 1    
 18139 18131 18140 1    
 18140 18131 18139 1    
 18141 18141 18147 1    
 18142 18141 18156 1    
 18143 18142 18150 2    
 18144 18143 18150 am   BACKBONE|DICT|INTERRES
 18145 18143 18144 1    
 18146 18143 18157 1    
 18147 18144 18149 ar   
 18148 18144 18145 ar   
 18149 18145 18152 1    
 18150 18145 18146 ar   
 18151 18146 18153 1    
 18152 18146 18147 ar   
 18153 18147 18148 ar   
 18154 18148 18154 1    
 18155 18148 18149 ar   
 18156 18149 18155 1    
 18157 18150 18151 1    
 18158 18151 18158 1    
 18159 18151 18160 1    
 18160 18151 18159 1    
 18161 18161 18176 1    
 18162 18161 18167 1    
 18163 18162 18170 2    
 18164 18163 18177 1    
 18165 18163 18170 am   BACKBONE|DICT|INTERRES
 18166 18163 18164 1    
 18167 18164 18165 ar   
 18168 18164 18169 ar   
 18169 18165 18172 1    
 18170 18165 18166 ar   
 18171 18166 18167 ar   
 18172 18166 18173 1    
 18173 18167 18168 ar   
 18174 18168 18169 ar   
 18175 18168 18174 1    
 18176 18169 18175 1    
 18177 18170 18171 1    
 18178 18171 18179 1    
 18179 18171 18178 1    
 18180 18171 18180 1    
 18181 18181 18196 1    
 18182 18181 18187 1    
 18183 18182 18190 2    
 18184 18183 18184 1    
 18185 18183 18197 1    
 18186 18183 18190 am   BACKBONE|DICT|INTERRES
 18187 18184 18185 ar   
 18188 18184 18189 ar   
 18189 18185 18186 ar   
 18190 18185 18192 1    
 18191 18186 18193 1    
 18192 18186 18187 ar   
 18193 18187 18188 ar   
 18194 18188 18194 1    
 18195 18188 18189 ar   
 18196 18189 18195 1    
 18197 18190 18191 1    
 18198 18191 18199 1    
 18199 18191 18198 1    
 18200 18191 18200 1    
 18201 18201 18216 1    
 18202 18201 18207 1    
 18203 18202 18210 2    
 18204 18203 18204 1    
 18205 18203 18217 1    
 18206 18203 18210 am   BACKBONE|DICT|INTERRES
 18207 18204 18209 ar   
 18208 18204 18205 ar   
 18209 18205 18206 ar   
 18210 18205 18212 1    
 18211 18206 18207 ar   
 18212 18206 18213 1    
 18213 18207 18208 ar   
 18214 18208 18209 ar   
 18215 18208 18214 1    
 18216 18209 18215 1    
 18217 18210 18211 1    
 18218 18211 18218 1    
 18219 18211 18220 1    
 18220 18211 18219 1    
 18221 18221 18227 1    
 18222 18221 18236 1    
 18223 18222 18230 2    
 18224 18223 18230 am   BACKBONE|DICT|INTERRES
 18225 18223 18224 1    
 18226 18223 18237 1    
 18227 18224 18229 ar   
 18228 18224 18225 ar   
 18229 18225 18232 1    
 18230 18225 18226 ar   
 18231 18226 18233 1    
 18232 18226 18227 ar   
 18233 18227 18228 ar   
 18234 18228 18234 1    
 18235 18228 18229 ar   
 18236 18229 18235 1    
 18237 18230 18231 1    
 18238 18231 18238 1    
 18239 18231 18240 1    
 18240 18231 18239 1    
 18241 18241 18256 1    
 18242 18241 18247 1    
 18243 18242 18250 2    
 18244 18243 18257 1    
 18245 18243 18250 am   BACKBONE|DICT|INTERRES
 18246 18243 18244 1    
 18247 18244 18245 ar   
 18248 18244 18249 ar   
 18249 18245 18252 1    
 18250 18245 18246 ar   
 18251 18246 18247 ar   
 18252 18246 18253 1    
 18253 18247 18248 ar   
 18254 18248 18249 ar   
 18255 18248 18254 1    
 18256 18249 18255 1    
 18257 18250 18251 1    
 18258 18251 18259 1    
 18259 18251 18258 1    
 18260 18251 18260 1    
 18261 18261 18276 1    
 18262 18261 18267 1    
 18263 18262 18270 2    
 18264 18263 18264 1    
 18265 18263 18277 1    
 18266 18263 18270 am   BACKBONE|DICT|INTERRES
 18267 18264 18265 ar   
 18268 18264 18269 ar   
 18269 18265 18266 ar   
 18270 18265 18272 1    
 18271 18266 18273 1    
 18272 18266 18267 ar   
 18273 18267 18268 ar   
 18274 18268 18274 1    
 18275 18268 18269 ar   
 18276 18269 18275 1    
 18277 18270 18271 1    
 18278 18271 18279 1    
 18279 18271 18278 1    
 18280 18271 18280 1    
 18281 18281 18296 1    
 18282 18281 18287 1    
 18283 18282 18290 2    
 18284 18283 18284 1    
 18285 18283 18297 1    
 18286 18283 18290 am   BACKBONE|DICT|INTERRES
 18287 18284 18289 ar   
 18288 18284 18285 ar   
 18289 18285 18286 ar   
 18290 18285 18292 1    
 18291 18286 18287 ar   
 18292 18286 18293 1    
 18293 18287 18288 ar   
 18294 18288 18289 ar   
 18295 18288 18294 1    
 18296 18289 18295 1    
 18297 18290 18291 1    
 18298 18291 18298 1    
 18299 18291 18300 1    
 18300 18291 18299 1    
 18301 18301 18307 1    
 18302 18301 18316 1    
 18303 18302 18310 2    
 18304 18303 18310 am   BACKBONE|DICT|INTERRES
 18305 18303 18304 1    
 18306 18303 18317 1    
 18307 18304 18309 ar   
 18308 18304 18305 ar   
 18309 18305 18312 1    
 18310 18305 18306 ar   
 18311 18306 18313 1    
 18312 18306 18307 ar   
 18313 18307 18308 ar   
 18314 18308 18314 1    
 18315 18308 18309 ar   
 18316 18309 18315 1    
 18317 18310 18311 1    
 18318 18311 18318 1    
 18319 18311 18320 1    
 18320 18311 18319 1    
 18321 18321 18336 1    
 18322 18321 18327 1    
 18323 18322 18330 2    
 18324 18323 18337 1    
 18325 18323 18330 am   BACKBONE|DICT|INTERRES
 18326 18323 18324 1    
 18327 18324 18325 ar   
 18328 18324 18329 ar   
 18329 18325 18332 1    
 18330 18325 18326 ar   
 18331 18326 18327 ar   
 18332 18326 18333 1    
 18333 18327 18328 ar   
 18334 18328 18329 ar   
 18335 18328 18334 1    
 18336 18329 18335 1    
 18337 18330 18331 1    
 18338 18331 18339 1    
 18339 18331 18338 1    
 18340 18331 18340 1    
 18341 18341 18356 1    
 18342 18341 18347 1    
 18343 18342 18350 2    
 18344 18343 18344 1    
 18345 18343 18357 1    
 18346 18343 18350 am   BACKBONE|DICT|INTERRES
 18347 18344 18345 ar   
 18348 18344 18349 ar   
 18349 18345 18346 ar   
 18350 18345 18352 1    
 18351 18346 18353 1    
 18352 18346 18347 ar   
 18353 18347 18348 ar   
 18354 18348 18354 1    
 18355 18348 18349 ar   
 18356 18349 18355 1    
 18357 18350 18351 1    
 18358 18351 18359 1    
 18359 18351 18358 1    
 18360 18351 18360 1    
 18361 18361 18376 1    
 18362 18361 18367 1    
 18363 18362 18370 2    
 18364 18363 18364 1    
 18365 18363 18377 1    
 18366 18363 18370 am   BACKBONE|DICT|INTERRES
 18367 18364 18369 ar   
 18368 18364 18365 ar   
 18369 18365 18366 ar   
 18370 18365 18372 1    
 18371 18366 18367 ar   
 18372 18366 18373 1    
 18373 18367 18368 ar   
 18374 18368 18369 ar   
 18375 18368 18374 1    
 18376 18369 18375 1    
 18377 18370 18371 1    
 18378 18371 18378 1    
 18379 18371 18380 1    
 18380 18371 18379 1    
 18381 18381 18387 1    
 18382 18381 18396 1    
 18383 18382 18390 2    
 18384 18383 18390 am   BACKBONE|DICT|INTERRES
 18385 18383 18384 1    
 18386 18383 18397 1    
 18387 18384 18389 ar   
 18388 18384 18385 ar   
 18389 18385 18392 1    
 18390 18385 18386 ar   
 18391 18386 18393 1    
 18392 18386 18387 ar   
 18393 18387 18388 ar   
 18394 18388 18394 1    
 18395 18388 18389 ar   
 18396 18389 18395 1    
 18397 18390 18391 1    
 18398 18391 18398 1    
 18399 18391 18400 1    
 18400 18391 18399 1    
 18401 18401 18416 1    
 18402 18401 18407 1    
 18403 18402 18410 2    
 18404 18403 18417 1    
 18405 18403 18410 am   BACKBONE|DICT|INTERRES
 18406 18403 18404 1    
 18407 18404 18405 ar   
 18408 18404 18409 ar   
 18409 18405 18412 1    
 18410 18405 18406 ar   
 18411 18406 18407 ar   
 18412 18406 18413 1    
 18413 18407 18408 ar   
 18414 18408 18409 ar   
 18415 18408 18414 1    
 18416 18409 18415 1    
 18417 18410 18411 1    
 18418 18411 18419 1    
 18419 18411 18418 1    
 18420 18411 18420 1    
 18421 18421 18436 1    
 18422 18421 18427 1    
 18423 18422 18430 2    
 18424 18423 18424 1    
 18425 18423 18437 1    
 18426 18423 18430 am   BACKBONE|DICT|INTERRES
 18427 18424 18425 ar   
 18428 18424 18429 ar   
 18429 18425 18426 ar   
 18430 18425 18432 1    
 18431 18426 18433 1    
 18432 18426 18427 ar   
 18433 18427 18428 ar   
 18434 18428 18434 1    
 18435 18428 18429 ar   
 18436 18429 18435 1    
 18437 18430 18431 1    
 18438 18431 18439 1    
 18439 18431 18438 1    
 18440 18431 18440 1    
 18441 18441 18456 1    
 18442 18441 18447 1    
 18443 18442 18450 2    
 18444 18443 18444 1    
 18445 18443 18457 1    
 18446 18443 18450 am   BACKBONE|DICT|INTERRES
 18447 18444 18449 ar   
 18448 18444 18445 ar   
 18449 18445 18446 ar   
 18450 18445 18452 1    
 18451 18446 18447 ar   
 18452 18446 18453 1    
 18453 18447 18448 ar   
 18454 18448 18449 ar   
 18455 18448 18454 1    
 18456 18449 18455 1    
 18457 18450 18451 1    
 18458 18451 18458 1    
 18459 18451 18460 1    
 18460 18451 18459 1    
 18461 18461 18467 1    
 18462 18461 18476 1    
 18463 18462 18470 2    
 18464 18463 18470 am   BACKBONE|DICT|INTERRES
 18465 18463 18464 1    
 18466 18463 18477 1    
 18467 18464 18469 ar   
 18468 18464 18465 ar   
 18469 18465 18472 1    
 18470 18465 18466 ar   
 18471 18466 18473 1    
 18472 18466 18467 ar   
 18473 18467 18468 ar   
 18474 18468 18474 1    
 18475 18468 18469 ar   
 18476 18469 18475 1    
 18477 18470 18471 1    
 18478 18471 18478 1    
 18479 18471 18480 1    
 18480 18471 18479 1    
 18481 18481 18496 1    
 18482 18481 18487 1    
 18483 18482 18490 2    
 18484 18483 18497 1    
 18485 18483 18490 am   BACKBONE|DICT|INTERRES
 18486 18483 18484 1    
 18487 18484 18485 ar   
 18488 18484 18489 ar   
 18489 18485 18492 1    
 18490 18485 18486 ar   
 18491 18486 18487 ar   
 18492 18486 18493 1    
 18493 18487 18488 ar   
 18494 18488 18489 ar   
 18495 18488 18494 1    
 18496 18489 18495 1    
 18497 18490 18491 1    
 18498 18491 18499 1    
 18499 18491 18498 1    
 18500 18491 18500 1    
 18501 18501 18516 1    
 18502 18501 18507 1    
 18503 18502 18510 2    
 18504 18503 18504 1    
 18505 18503 18517 1    
 18506 18503 18510 am   BACKBONE|DICT|INTERRES
 18507 18504 18505 ar   
 18508 18504 18509 ar   
 18509 18505 18506 ar   
 18510 18505 18512 1    
 18511 18506 18513 1    
 18512 18506 18507 ar   
 18513 18507 18508 ar   
 18514 18508 18514 1    
 18515 18508 18509 ar   
 18516 18509 18515 1    
 18517 18510 18511 1    
 18518 18511 18519 1    
 18519 18511 18518 1    
 18520 18511 18520 1    
 18521 18521 18536 1    
 18522 18521 18527 1    
 18523 18522 18530 2    
 18524 18523 18524 1    
 18525 18523 18537 1    
 18526 18523 18530 am   BACKBONE|DICT|INTERRES
 18527 18524 18529 ar   
 18528 18524 18525 ar   
 18529 18525 18526 ar   
 18530 18525 18532 1    
 18531 18526 18527 ar   
 18532 18526 18533 1    
 18533 18527 18528 ar   
 18534 18528 18529 ar   
 18535 18528 18534 1    
 18536 18529 18535 1    
 18537 18530 18531 1    
 18538 18531 18538 1    
 18539 18531 18540 1    
 18540 18531 18539 1    
 18541 18541 18547 1    
 18542 18541 18556 1    
 18543 18542 18550 2    
 18544 18543 18550 am   BACKBONE|DICT|INTERRES
 18545 18543 18544 1    
 18546 18543 18557 1    
 18547 18544 18549 ar   
 18548 18544 18545 ar   
 18549 18545 18552 1    
 18550 18545 18546 ar   
 18551 18546 18553 1    
 18552 18546 18547 ar   
 18553 18547 18548 ar   
 18554 18548 18554 1    
 18555 18548 18549 ar   
 18556 18549 18555 1    
 18557 18550 18551 1    
 18558 18551 18558 1    
 18559 18551 18560 1    
 18560 18551 18559 1    
 18561 18561 18576 1    
 18562 18561 18567 1    
 18563 18562 18570 2    
 18564 18563 18577 1    
 18565 18563 18570 am   BACKBONE|DICT|INTERRES
 18566 18563 18564 1    
 18567 18564 18565 ar   
 18568 18564 18569 ar   
 18569 18565 18572 1    
 18570 18565 18566 ar   
 18571 18566 18567 ar   
 18572 18566 18573 1    
 18573 18567 18568 ar   
 18574 18568 18569 ar   
 18575 18568 18574 1    
 18576 18569 18575 1    
 18577 18570 18571 1    
 18578 18571 18579 1    
 18579 18571 18578 1    
 18580 18571 18580 1    
 18581 18581 18596 1    
 18582 18581 18587 1    
 18583 18582 18590 2    
 18584 18583 18584 1    
 18585 18583 18597 1    
 18586 18583 18590 am   BACKBONE|DICT|INTERRES
 18587 18584 18585 ar   
 18588 18584 18589 ar   
 18589 18585 18586 ar   
 18590 18585 18592 1    
 18591 18586 18593 1    
 18592 18586 18587 ar   
 18593 18587 18588 ar   
 18594 18588 18594 1    
 18595 18588 18589 ar   
 18596 18589 18595 1    
 18597 18590 18591 1    
 18598 18591 18599 1    
 18599 18591 18598 1    
 18600 18591 18600 1    
 18601 18601 18616 1    
 18602 18601 18607 1    
 18603 18602 18610 2    
 18604 18603 18604 1    
 18605 18603 18617 1    
 18606 18603 18610 am   BACKBONE|DICT|INTERRES
 18607 18604 18609 ar   
 18608 18604 18605 ar   
 18609 18605 18606 ar   
 18610 18605 18612 1    
 18611 18606 18607 ar   
 18612 18606 18613 1    
 18613 18607 18608 ar   
 18614 18608 18609 ar   
 18615 18608 18614 1    
 18616 18609 18615 1    
 18617 18610 18611 1    
 18618 18611 18618 1    
 18619 18611 18620 1    
 18620 18611 18619 1    
 18621 18621 18627 1    
 18622 18621 18636 1    
 18623 18622 18630 2    
 18624 18623 18630 am   BACKBONE|DICT|INTERRES
 18625 18623 18624 1    
 18626 18623 18637 1    
 18627 18624 18629 ar   
 18628 18624 18625 ar   
 18629 18625 18632 1    
 18630 18625 18626 ar   
 18631 18626 18633 1    
 18632 18626 18627 ar   
 18633 18627 18628 ar   
 18634 18628 18634 1    
 18635 18628 18629 ar   
 18636 18629 18635 1    
 18637 18630 18631 1    
 18638 18631 18638 1    
 18639 18631 18640 1    
 18640 18631 18639 1    
 18641 18641 18656 1    
 18642 18641 18647 1    
 18643 18642 18650 2    
 18644 18643 18657 1    
 18645 18643 18650 am   BACKBONE|DICT|INTERRES
 18646 18643 18644 1    
 18647 18644 18645 ar   
 18648 18644 18649 ar   
 18649 18645 18652 1    
 18650 18645 18646 ar   
 18651 18646 18647 ar   
 18652 18646 18653 1    
 18653 18647 18648 ar   
 18654 18648 18649 ar   
 18655 18648 18654 1    
 18656 18649 18655 1    
 18657 18650 18651 1    
 18658 18651 18659 1    
 18659 18651 18658 1    
 18660 18651 18660 1    
 18661 18661 18676 1    
 18662 18661 18667 1    
 18663 18662 18670 2    
 18664 18663 18664 1    
 18665 18663 18677 1    
 18666 18663 18670 am   BACKBONE|DICT|INTERRES
 18667 18664 18665 ar   
 18668 18664 18669 ar   
 18669 18665 18666 ar   
 18670 18665 18672 1    
 18671 18666 18673 1    
 18672 18666 18667 ar   
 18673 18667 18668 ar   
 18674 18668 18674 1    
 18675 18668 18669 ar   
 18676 18669 18675 1    
 18677 18670 18671 1    
 18678 18671 18679 1    
 18679 18671 18678 1    
 18680 18671 18680 1    
 18681 18681 18696 1    
 18682 18681 18687 1    
 18683 18682 18690 2    
 18684 18683 18684 1    
 18685 18683 18697 1    
 18686 18683 18690 am   BACKBONE|DICT|INTERRES
 18687 18684 18689 ar   
 18688 18684 18685 ar   
 18689 18685 18686 ar   
 18690 18685 18692 1    
 18691 18686 18687 ar   
 18692 18686 18693 1    
 18693 18687 18688 ar   
 18694 18688 18689 ar   
 18695 18688 18694 1    
 18696 18689 18695 1    
 18697 18690 18691 1    
 18698 18691 18698 1    
 18699 18691 18700 1    
 18700 18691 18699 1    
 18701 18701 18707 1    
 18702 18701 18716 1    
 18703 18702 18710 2    
 18704 18703 18710 am   BACKBONE|DICT|INTERRES
 18705 18703 18704 1    
 18706 18703 18717 1    
 18707 18704 18709 ar   
 18708 18704 18705 ar   
 18709 18705 18712 1    
 18710 18705 18706 ar   
 18711 18706 18713 1    
 18712 18706 18707 ar   
 18713 18707 18708 ar   
 18714 18708 18714 1    
 18715 18708 18709 ar   
 18716 18709 18715 1    
 18717 18710 18711 1    
 18718 18711 18718 1    
 18719 18711 18720 1    
 18720 18711 18719 1    
 18721 18721 18736 1    
 18722 18721 18727 1    
 18723 18722 18730 2    
 18724 18723 18737 1    
 18725 18723 18730 am   BACKBONE|DICT|INTERRES
 18726 18723 18724 1    
 18727 18724 18725 ar   
 18728 18724 18729 ar   
 18729 18725 18732 1    
 18730 18725 18726 ar   
 18731 18726 18727 ar   
 18732 18726 18733 1    
 18733 18727 18728 ar   
 18734 18728 18729 ar   
 18735 18728 18734 1    
 18736 18729 18735 1    
 18737 18730 18731 1    
 18738 18731 18739 1    
 18739 18731 18738 1    
 18740 18731 18740 1    
 18741 18741 18756 1    
 18742 18741 18747 1    
 18743 18742 18750 2    
 18744 18743 18744 1    
 18745 18743 18757 1    
 18746 18743 18750 am   BACKBONE|DICT|INTERRES
 18747 18744 18745 ar   
 18748 18744 18749 ar   
 18749 18745 18746 ar   
 18750 18745 18752 1    
 18751 18746 18753 1    
 18752 18746 18747 ar   
 18753 18747 18748 ar   
 18754 18748 18754 1    
 18755 18748 18749 ar   
 18756 18749 18755 1    
 18757 18750 18751 1    
 18758 18751 18759 1    
 18759 18751 18758 1    
 18760 18751 18760 1    
 18761 18761 18776 1    
 18762 18761 18767 1    
 18763 18762 18770 2    
 18764 18763 18764 1    
 18765 18763 18777 1    
 18766 18763 18770 am   BACKBONE|DICT|INTERRES
 18767 18764 18769 ar   
 18768 18764 18765 ar   
 18769 18765 18766 ar   
 18770 18765 18772 1    
 18771 18766 18767 ar   
 18772 18766 18773 1    
 18773 18767 18768 ar   
 18774 18768 18769 ar   
 18775 18768 18774 1    
 18776 18769 18775 1    
 18777 18770 18771 1    
 18778 18771 18778 1    
 18779 18771 18780 1    
 18780 18771 18779 1    
 18781 18781 18787 1    
 18782 18781 18796 1    
 18783 18782 18790 2    
 18784 18783 18790 am   BACKBONE|DICT|INTERRES
 18785 18783 18784 1    
 18786 18783 18797 1    
 18787 18784 18789 ar   
 18788 18784 18785 ar   
 18789 18785 18792 1    
 18790 18785 18786 ar   
 18791 18786 18793 1    
 18792 18786 18787 ar   
 18793 18787 18788 ar   
 18794 18788 18794 1    
 18795 18788 18789 ar   
 18796 18789 18795 1    
 18797 18790 18791 1    
 18798 18791 18798 1    
 18799 18791 18800 1    
 18800 18791 18799 1    
 18801 18801 18816 1    
 18802 18801 18807 1    
 18803 18802 18810 2    
 18804 18803 18817 1    
 18805 18803 18810 am   BACKBONE|DICT|INTERRES
 18806 18803 18804 1    
 18807 18804 18805 ar   
 18808 18804 18809 ar   
 18809 18805 18812 1    
 18810 18805 18806 ar   
 18811 18806 18807 ar   
 18812 18806 18813 1    
 18813 18807 18808 ar   
 18814 18808 18809 ar   
 18815 18808 18814 1    
 18816 18809 18815 1    
 18817 18810 18811 1    
 18818 18811 18819 1    
 18819 18811 18818 1    
 18820 18811 18820 1    
 18821 18821 18836 1    
 18822 18821 18827 1    
 18823 18822 18830 2    
 18824 18823 18824 1    
 18825 18823 18837 1    
 18826 18823 18830 am   BACKBONE|DICT|INTERRES
 18827 18824 18825 ar   
 18828 18824 18829 ar   
 18829 18825 18826 ar   
 18830 18825 18832 1    
 18831 18826 18833 1    
 18832 18826 18827 ar   
 18833 18827 18828 ar   
 18834 18828 18834 1    
 18835 18828 18829 ar   
 18836 18829 18835 1    
 18837 18830 18831 1    
 18838 18831 18839 1    
 18839 18831 18838 1    
 18840 18831 18840 1    
 18841 18841 18856 1    
 18842 18841 18847 1    
 18843 18842 18850 2    
 18844 18843 18844 1    
 18845 18843 18857 1    
 18846 18843 18850 am   BACKBONE|DICT|INTERRES
 18847 18844 18849 ar   
 18848 18844 18845 ar   
 18849 18845 18846 ar   
 18850 18845 18852 1    
 18851 18846 18847 ar   
 18852 18846 18853 1    
 18853 18847 18848 ar   
 18854 18848 18849 ar   
 18855 18848 18854 1    
 18856 18849 18855 1    
 18857 18850 18851 1    
 18858 18851 18858 1    
 18859 18851 18860 1    
 18860 18851 18859 1    
 18861 18861 18867 1    
 18862 18861 18876 1    
 18863 18862 18870 2    
 18864 18863 18870 am   BACKBONE|DICT|INTERRES
 18865 18863 18864 1    
 18866 18863 18877 1    
 18867 18864 18869 ar   
 18868 18864 18865 ar   
 18869 18865 18872 1    
 18870 18865 18866 ar   
 18871 18866 18873 1    
 18872 18866 18867 ar   
 18873 18867 18868 ar   
 18874 18868 18874 1    
 18875 18868 18869 ar   
 18876 18869 18875 1    
 18877 18870 18871 1    
 18878 18871 18878 1    
 18879 18871 18880 1    
 18880 18871 18879 1    
 18881 18881 18896 1    
 18882 18881 18887 1    
 18883 18882 18890 2    
 18884 18883 18897 1    
 18885 18883 18890 am   BACKBONE|DICT|INTERRES
 18886 18883 18884 1    
 18887 18884 18885 ar   
 18888 18884 18889 ar   
 18889 18885 18892 1    
 18890 18885 18886 ar   
 18891 18886 18887 ar   
 18892 18886 18893 1    
 18893 18887 18888 ar   
 18894 18888 18889 ar   
 18895 18888 18894 1    
 18896 18889 18895 1    
 18897 18890 18891 1    
 18898 18891 18899 1    
 18899 18891 18898 1    
 18900 18891 18900 1    
 18901 18901 18916 1    
 18902 18901 18907 1    
 18903 18902 18910 2    
 18904 18903 18904 1    
 18905 18903 18917 1    
 18906 18903 18910 am   BACKBONE|DICT|INTERRES
 18907 18904 18905 ar   
 18908 18904 18909 ar   
 18909 18905 18906 ar   
 18910 18905 18912 1    
 18911 18906 18913 1    
 18912 18906 18907 ar   
 18913 18907 18908 ar   
 18914 18908 18914 1    
 18915 18908 18909 ar   
 18916 18909 18915 1    
 18917 18910 18911 1    
 18918 18911 18919 1    
 18919 18911 18918 1    
 18920 18911 18920 1    
 18921 18921 18936 1    
 18922 18921 18927 1    
 18923 18922 18930 2    
 18924 18923 18924 1    
 18925 18923 18937 1    
 18926 18923 18930 am   BACKBONE|DICT|INTERRES
 18927 18924 18929 ar   
 18928 18924 18925 ar   
 18929 18925 18926 ar   
 18930 18925 18932 1    
 18931 18926 18927 ar   
 18932 18926 18933 1    
 18933 18927 18928 ar   
 18934 18928 18929 ar   
 18935 18928 18934 1    
 18936 18929 18935 1    
 18937 18930 18931 1    
 18938 18931 18938 1    
 18939 18931 18940 1    
 18940 18931 18939 1    
 18941 18941 18947 1    
 18942 18941 18956 1    
 18943 18942 18950 2    
 18944 18943 18950 am   BACKBONE|DICT|INTERRES
 18945 18943 18944 1    
 18946 18943 18957 1    
 18947 18944 18949 ar   
 18948 18944 18945 ar   
 18949 18945 18952 1    
 18950 18945 18946 ar   
 18951 18946 18953 1    
 18952 18946 18947 ar   
 18953 18947 18948 ar   
 18954 18948 18954 1    
 18955 18948 18949 ar   
 18956 18949 18955 1    
 18957 18950 18951 1    
 18958 18951 18958 1    
 18959 18951 18960 1    
 18960 18951 18959 1    
 18961 18961 18976 1    
 18962 18961 18967 1    
 18963 18962 18970 2    
 18964 18963 18977 1    
 18965 18963 18970 am   BACKBONE|DICT|INTERRES
 18966 18963 18964 1    
 18967 18964 18965 ar   
 18968 18964 18969 ar   
 18969 18965 18972 1    
 18970 18965 18966 ar   
 18971 18966 18967 ar   
 18972 18966 18973 1    
 18973 18967 18968 ar   
 18974 18968 18969 ar   
 18975 18968 18974 1    
 18976 18969 18975 1    
 18977 18970 18971 1    
 18978 18971 18979 1    
 18979 18971 18978 1    
 18980 18971 18980 1    
 18981 18981 18996 1    
 18982 18981 18987 1    
 18983 18982 18990 2    
 18984 18983 18984 1    
 18985 18983 18997 1    
 18986 18983 18990 am   BACKBONE|DICT|INTERRES
 18987 18984 18985 ar   
 18988 18984 18989 ar   
 18989 18985 18986 ar   
 18990 18985 18992 1    
 18991 18986 18993 1    
 18992 18986 18987 ar   
 18993 18987 18988 ar   
 18994 18988 18994 1    
 18995 18988 18989 ar   
 18996 18989 18995 1    
 18997 18990 18991 1    
 18998 18991 18999 1    
 18999 18991 18998 1    
 19000 18991 19000 1    
 19001 19001 19016 1    
 19002 19001 19007 1    
 19003 19002 19010 2    
 19004 19003 19004 1    
 19005 19003 19017 1    
 19006 19003 19010 am   BACKBONE|DICT|INTERRES
 19007 19004 19009 ar   
 19008 19004 19005 ar   
 19009 19005 19006 ar   
 19010 19005 19012 1    
 19011 19006 19007 ar   
 19012 19006 19013 1    
 19013 19007 19008 ar   
 19014 19008 19009 ar   
 19015 19008 19014 1    
 19016 19009 19015 1    
 19017 19010 19011 1    
 19018 19011 19018 1    
 19019 19011 19020 1    
 19020 19011 19019 1    
 19021 19021 19027 1    
 19022 19021 19036 1    
 19023 19022 19030 2    
 19024 19023 19030 am   BACKBONE|DICT|INTERRES
 19025 19023 19024 1    
 19026 19023 19037 1    
 19027 19024 19029 ar   
 19028 19024 19025 ar   
 19029 19025 19032 1    
 19030 19025 19026 ar   
 19031 19026 19033 1    
 19032 19026 19027 ar   
 19033 19027 19028 ar   
 19034 19028 19034 1    
 19035 19028 19029 ar   
 19036 19029 19035 1    
 19037 19030 19031 1    
 19038 19031 19038 1    
 19039 19031 19040 1    
 19040 19031 19039 1    
 19041 19041 19056 1    
 19042 19041 19047 1    
 19043 19042 19050 2    
 19044 19043 19057 1    
 19045 19043 19050 am   BACKBONE|DICT|INTERRES
 19046 19043 19044 1    
 19047 19044 19045 ar   
 19048 19044 19049 ar   
 19049 19045 19052 1    
 19050 19045 19046 ar   
 19051 19046 19047 ar   
 19052 19046 19053 1    
 19053 19047 19048 ar   
 19054 19048 19049 ar   
 19055 19048 19054 1    
 19056 19049 19055 1    
 19057 19050 19051 1    
 19058 19051 19059 1    
 19059 19051 19058 1    
 19060 19051 19060 1    
 19061 19061 19076 1    
 19062 19061 19067 1    
 19063 19062 19070 2    
 19064 19063 19064 1    
 19065 19063 19077 1    
 19066 19063 19070 am   BACKBONE|DICT|INTERRES
 19067 19064 19065 ar   
 19068 19064 19069 ar   
 19069 19065 19066 ar   
 19070 19065 19072 1    
 19071 19066 19073 1    
 19072 19066 19067 ar   
 19073 19067 19068 ar   
 19074 19068 19074 1    
 19075 19068 19069 ar   
 19076 19069 19075 1    
 19077 19070 19071 1    
 19078 19071 19079 1    
 19079 19071 19078 1    
 19080 19071 19080 1    
 19081 19081 19096 1    
 19082 19081 19087 1    
 19083 19082 19090 2    
 19084 19083 19084 1    
 19085 19083 19097 1    
 19086 19083 19090 am   BACKBONE|DICT|INTERRES
 19087 19084 19089 ar   
 19088 19084 19085 ar   
 19089 19085 19086 ar   
 19090 19085 19092 1    
 19091 19086 19087 ar   
 19092 19086 19093 1    
 19093 19087 19088 ar   
 19094 19088 19089 ar   
 19095 19088 19094 1    
 19096 19089 19095 1    
 19097 19090 19091 1    
 19098 19091 19098 1    
 19099 19091 19100 1    
 19100 19091 19099 1    
 19101 19101 19107 1    
 19102 19101 19116 1    
 19103 19102 19110 2    
 19104 19103 19110 am   BACKBONE|DICT|INTERRES
 19105 19103 19104 1    
 19106 19103 19117 1    
 19107 19104 19109 ar   
 19108 19104 19105 ar   
 19109 19105 19112 1    
 19110 19105 19106 ar   
 19111 19106 19113 1    
 19112 19106 19107 ar   
 19113 19107 19108 ar   
 19114 19108 19114 1    
 19115 19108 19109 ar   
 19116 19109 19115 1    
 19117 19110 19111 1    
 19118 19111 19118 1    
 19119 19111 19120 1    
 19120 19111 19119 1    
 19121 19121 19136 1    
 19122 19121 19127 1    
 19123 19122 19130 2    
 19124 19123 19137 1    
 19125 19123 19130 am   BACKBONE|DICT|INTERRES
 19126 19123 19124 1    
 19127 19124 19125 ar   
 19128 19124 19129 ar   
 19129 19125 19132 1    
 19130 19125 19126 ar   
 19131 19126 19127 ar   
 19132 19126 19133 1    
 19133 19127 19128 ar   
 19134 19128 19129 ar   
 19135 19128 19134 1    
 19136 19129 19135 1    
 19137 19130 19131 1    
 19138 19131 19139 1    
 19139 19131 19138 1    
 19140 19131 19140 1    
 19141 19141 19156 1    
 19142 19141 19147 1    
 19143 19142 19150 2    
 19144 19143 19144 1    
 19145 19143 19157 1    
 19146 19143 19150 am   BACKBONE|DICT|INTERRES
 19147 19144 19145 ar   
 19148 19144 19149 ar   
 19149 19145 19146 ar   
 19150 19145 19152 1    
 19151 19146 19153 1    
 19152 19146 19147 ar   
 19153 19147 19148 ar   
 19154 19148 19154 1    
 19155 19148 19149 ar   
 19156 19149 19155 1    
 19157 19150 19151 1    
 19158 19151 19159 1    
 19159 19151 19158 1    
 19160 19151 19160 1    
 19161 19161 19176 1    
 19162 19161 19167 1    
 19163 19162 19170 2    
 19164 19163 19164 1    
 19165 19163 19177 1    
 19166 19163 19170 am   BACKBONE|DICT|INTERRES
 19167 19164 19169 ar   
 19168 19164 19165 ar   
 19169 19165 19166 ar   
 19170 19165 19172 1    
 19171 19166 19167 ar   
 19172 19166 19173 1    
 19173 19167 19168 ar   
 19174 19168 19169 ar   
 19175 19168 19174 1    
 19176 19169 19175 1    
 19177 19170 19171 1    
 19178 19171 19178 1    
 19179 19171 19180 1    
 19180 19171 19179 1    
 19181 19181 19187 1    
 19182 19181 19196 1    
 19183 19182 19190 2    
 19184 19183 19190 am   BACKBONE|DICT|INTERRES
 19185 19183 19184 1    
 19186 19183 19197 1    
 19187 19184 19189 ar   
 19188 19184 19185 ar   
 19189 19185 19192 1    
 19190 19185 19186 ar   
 19191 19186 19193 1    
 19192 19186 19187 ar   
 19193 19187 19188 ar   
 19194 19188 19194 1    
 19195 19188 19189 ar   
 19196 19189 19195 1    
 19197 19190 19191 1    
 19198 19191 19198 1    
 19199 19191 19200 1    
 19200 19191 19199 1    
 19201 19201 19216 1    
 19202 19201 19207 1    
 19203 19202 19210 2    
 19204 19203 19217 1    
 19205 19203 19210 am   BACKBONE|DICT|INTERRES
 19206 19203 19204 1    
 19207 19204 19205 ar   
 19208 19204 19209 ar   
 19209 19205 19212 1    
 19210 19205 19206 ar   
 19211 19206 19207 ar   
 19212 19206 19213 1    
 19213 19207 19208 ar   
 19214 19208 19209 ar   
 19215 19208 19214 1    
 19216 19209 19215 1    
 19217 19210 19211 1    
 19218 19211 19219 1    
 19219 19211 19218 1    
 19220 19211 19220 1    
 19221 19221 19236 1    
 19222 19221 19227 1    
 19223 19222 19230 2    
 19224 19223 19224 1    
 19225 19223 19237 1    
 19226 19223 19230 am   BACKBONE|DICT|INTERRES
 19227 19224 19225 ar   
 19228 19224 19229 ar   
 19229 19225 19226 ar   
 19230 19225 19232 1    
 19231 19226 19233 1    
 19232 19226 19227 ar   
 19233 19227 19228 ar   
 19234 19228 19234 1    
 19235 19228 19229 ar   
 19236 19229 19235 1    
 19237 19230 19231 1    
 19238 19231 19239 1    
 19239 19231 19238 1    
 19240 19231 19240 1    
 19241 19241 19256 1    
 19242 19241 19247 1    
 19243 19242 19250 2    
 19244 19243 19244 1    
 19245 19243 19257 1    
 19246 19243 19250 am   BACKBONE|DICT|INTERRES
 19247 19244 19249 ar   
 19248 19244 19245 ar   
 19249 19245 19246 ar   
 19250 19245 19252 1    
 19251 19246 19247 ar   
 19252 19246 19253 1    
 19253 19247 19248 ar   
 19254 19248 19249 ar   
 19255 19248 19254 1    
 19256 19249 19255 1    
 19257 19250 19251 1    
 19258 19251 19258 1    
 19259 19251 19260 1    
 19260 19251 19259 1    
 19261 19261 19267 1    
 19262 19261 19276 1    
 19263 19262 19270 2    
 19264 19263 19270 am   BACKBONE|DICT|INTERRES
 19265 19263 19264 1    
 19266 19263 19277 1    
 19267 19264 19269 ar   
 19268 19264 19265 ar   
 19269 19265 19272 1    
 19270 19265 19266 ar   
 19271 19266 19273 1    
 19272 19266 19267 ar   
 19273 19267 19268 ar   
 19274 19268 19274 1    
 19275 19268 19269 ar   
 19276 19269 19275 1    
 19277 19270 19271 1    
 19278 19271 19278 1    
 19279 19271 19280 1    
 19280 19271 19279 1    
 19281 19281 19296 1    
 19282 19281 19287 1    
 19283 19282 19290 2    
 19284 19283 19297 1    
 19285 19283 19290 am   BACKBONE|DICT|INTERRES
 19286 19283 19284 1    
 19287 19284 19285 ar   
 19288 19284 19289 ar   
 19289 19285 19292 1    
 19290 19285 19286 ar   
 19291 19286 19287 ar   
 19292 19286 19293 1    
 19293 19287 19288 ar   
 19294 19288 19289 ar   
 19295 19288 19294 1    
 19296 19289 19295 1    
 19297 19290 19291 1    
 19298 19291 19299 1    
 19299 19291 19298 1    
 19300 19291 19300 1    
 19301 19301 19316 1    
 19302 19301 19307 1    
 19303 19302 19310 2    
 19304 19303 19304 1    
 19305 19303 19317 1    
 19306 19303 19310 am   BACKBONE|DICT|INTERRES
 19307 19304 19305 ar   
 19308 19304 19309 ar   
 19309 19305 19306 ar   
 19310 19305 19312 1    
 19311 19306 19313 1    
 19312 19306 19307 ar   
 19313 19307 19308 ar   
 19314 19308 19314 1    
 19315 19308 19309 ar   
 19316 19309 19315 1    
 19317 19310 19311 1    
 19318 19311 19319 1    
 19319 19311 19318 1    
 19320 19311 19320 1    
 19321 19321 19336 1    
 19322 19321 19327 1    
 19323 19322 19330 2    
 19324 19323 19324 1    
 19325 19323 19337 1    
 19326 19323 19330 am   BACKBONE|DICT|INTERRES
 19327 19324 19329 ar   
 19328 19324 19325 ar   
 19329 19325 19326 ar   
 19330 19325 19332 1    
 19331 19326 19327 ar   
 19332 19326 19333 1    
 19333 19327 19328 ar   
 19334 19328 19329 ar   
 19335 19328 19334 1    
 19336 19329 19335 1    
 19337 19330 19331 1    
 19338 19331 19338 1    
 19339 19331 19340 1    
 19340 19331 19339 1    
 19341 19341 19347 1    
 19342 19341 19356 1    
 19343 19342 19350 2    
 19344 19343 19350 am   BACKBONE|DICT|INTERRES
 19345 19343 19344 1    
 19346 19343 19357 1    
 19347 19344 19349 ar   
 19348 19344 19345 ar   
 19349 19345 19352 1    
 19350 19345 19346 ar   
 19351 19346 19353 1    
 19352 19346 19347 ar   
 19353 19347 19348 ar   
 19354 19348 19354 1    
 19355 19348 19349 ar   
 19356 19349 19355 1    
 19357 19350 19351 1    
 19358 19351 19358 1    
 19359 19351 19360 1    
 19360 19351 19359 1    
 19361 19361 19376 1    
 19362 19361 19367 1    
 19363 19362 19370 2    
 19364 19363 19377 1    
 19365 19363 19370 am   BACKBONE|DICT|INTERRES
 19366 19363 19364 1    
 19367 19364 19365 ar   
 19368 19364 19369 ar   
 19369 19365 19372 1    
 19370 19365 19366 ar   
 19371 19366 19367 ar   
 19372 19366 19373 1    
 19373 19367 19368 ar   
 19374 19368 19369 ar   
 19375 19368 19374 1    
 19376 19369 19375 1    
 19377 19370 19371 1    
 19378 19371 19379 1    
 19379 19371 19378 1    
 19380 19371 19380 1    
 19381 19381 19396 1    
 19382 19381 19387 1    
 19383 19382 19390 2    
 19384 19383 19384 1    
 19385 19383 19397 1    
 19386 19383 19390 am   BACKBONE|DICT|INTERRES
 19387 19384 19385 ar   
 19388 19384 19389 ar   
 19389 19385 19386 ar   
 19390 19385 19392 1    
 19391 19386 19393 1    
 19392 19386 19387 ar   
 19393 19387 19388 ar   
 19394 19388 19394 1    
 19395 19388 19389 ar   
 19396 19389 19395 1    
 19397 19390 19391 1    
 19398 19391 19399 1    
 19399 19391 19398 1    
 19400 19391 19400 1    
 19401 19401 19416 1    
 19402 19401 19407 1    
 19403 19402 19410 2    
 19404 19403 19404 1    
 19405 19403 19417 1    
 19406 19403 19410 am   BACKBONE|DICT|INTERRES
 19407 19404 19409 ar   
 19408 19404 19405 ar   
 19409 19405 19406 ar   
 19410 19405 19412 1    
 19411 19406 19407 ar   
 19412 19406 19413 1    
 19413 19407 19408 ar   
 19414 19408 19409 ar   
 19415 19408 19414 1    
 19416 19409 19415 1    
 19417 19410 19411 1    
 19418 19411 19418 1    
 19419 19411 19420 1    
 19420 19411 19419 1    
 19421 19421 19427 1    
 19422 19421 19436 1    
 19423 19422 19430 2    
 19424 19423 19430 am   BACKBONE|DICT|INTERRES
 19425 19423 19424 1    
 19426 19423 19437 1    
 19427 19424 19429 ar   
 19428 19424 19425 ar   
 19429 19425 19432 1    
 19430 19425 19426 ar   
 19431 19426 19433 1    
 19432 19426 19427 ar   
 19433 19427 19428 ar   
 19434 19428 19434 1    
 19435 19428 19429 ar   
 19436 19429 19435 1    
 19437 19430 19431 1    
 19438 19431 19438 1    
 19439 19431 19440 1    
 19440 19431 19439 1    
 19441 19441 19456 1    
 19442 19441 19447 1    
 19443 19442 19450 2    
 19444 19443 19457 1    
 19445 19443 19450 am   BACKBONE|DICT|INTERRES
 19446 19443 19444 1    
 19447 19444 19445 ar   
 19448 19444 19449 ar   
 19449 19445 19452 1    
 19450 19445 19446 ar   
 19451 19446 19447 ar   
 19452 19446 19453 1    
 19453 19447 19448 ar   
 19454 19448 19449 ar   
 19455 19448 19454 1    
 19456 19449 19455 1    
 19457 19450 19451 1    
 19458 19451 19459 1    
 19459 19451 19458 1    
 19460 19451 19460 1    
 19461 19461 19476 1    
 19462 19461 19467 1    
 19463 19462 19470 2    
 19464 19463 19464 1    
 19465 19463 19477 1    
 19466 19463 19470 am   BACKBONE|DICT|INTERRES
 19467 19464 19465 ar   
 19468 19464 19469 ar   
 19469 19465 19466 ar   
 19470 19465 19472 1    
 19471 19466 19473 1    
 19472 19466 19467 ar   
 19473 19467 19468 ar   
 19474 19468 19474 1    
 19475 19468 19469 ar   
 19476 19469 19475 1    
 19477 19470 19471 1    
 19478 19471 19479 1    
 19479 19471 19478 1    
 19480 19471 19480 1    
 19481 19481 19496 1    
 19482 19481 19487 1    
 19483 19482 19490 2    
 19484 19483 19484 1    
 19485 19483 19497 1    
 19486 19483 19490 am   BACKBONE|DICT|INTERRES
 19487 19484 19489 ar   
 19488 19484 19485 ar   
 19489 19485 19486 ar   
 19490 19485 19492 1    
 19491 19486 19487 ar   
 19492 19486 19493 1    
 19493 19487 19488 ar   
 19494 19488 19489 ar   
 19495 19488 19494 1    
 19496 19489 19495 1    
 19497 19490 19491 1    
 19498 19491 19498 1    
 19499 19491 19500 1    
 19500 19491 19499 1    
 19501 19501 19507 1    
 19502 19501 19516 1    
 19503 19502 19510 2    
 19504 19503 19510 am   BACKBONE|DICT|INTERRES
 19505 19503 19504 1    
 19506 19503 19517 1    
 19507 19504 19509 ar   
 19508 19504 19505 ar   
 19509 19505 19512 1    
 19510 19505 19506 ar   
 19511 19506 19513 1    
 19512 19506 19507 ar   
 19513 19507 19508 ar   
 19514 19508 19514 1    
 19515 19508 19509 ar   
 19516 19509 19515 1    
 19517 19510 19511 1    
 19518 19511 19518 1    
 19519 19511 19520 1    
 19520 19511 19519 1    
 19521 19521 19536 1    
 19522 19521 19527 1    
 19523 19522 19530 2    
 19524 19523 19537 1    
 19525 19523 19530 am   BACKBONE|DICT|INTERRES
 19526 19523 19524 1    
 19527 19524 19525 ar   
 19528 19524 19529 ar   
 19529 19525 19532 1    
 19530 19525 19526 ar   
 19531 19526 19527 ar   
 19532 19526 19533 1    
 19533 19527 19528 ar   
 19534 19528 19529 ar   
 19535 19528 19534 1    
 19536 19529 19535 1    
 19537 19530 19531 1    
 19538 19531 19539 1    
 19539 19531 19538 1    
 19540 19531 19540 1    
 19541 19541 19556 1    
 19542 19541 19547 1    
 19543 19542 19550 2    
 19544 19543 19544 1    
 19545 19543 19557 1    
 19546 19543 19550 am   BACKBONE|DICT|INTERRES
 19547 19544 19545 ar   
 19548 19544 19549 ar   
 19549 19545 19546 ar   
 19550 19545 19552 1    
 19551 19546 19553 1    
 19552 19546 19547 ar   
 19553 19547 19548 ar   
 19554 19548 19554 1    
 19555 19548 19549 ar   
 19556 19549 19555 1    
 19557 19550 19551 1    
 19558 19551 19559 1    
 19559 19551 19558 1    
 19560 19551 19560 1    
 19561 19561 19576 1    
 19562 19561 19567 1    
 19563 19562 19570 2    
 19564 19563 19564 1    
 19565 19563 19577 1    
 19566 19563 19570 am   BACKBONE|DICT|INTERRES
 19567 19564 19569 ar   
 19568 19564 19565 ar   
 19569 19565 19566 ar   
 19570 19565 19572 1    
 19571 19566 19567 ar   
 19572 19566 19573 1    
 19573 19567 19568 ar   
 19574 19568 19569 ar   
 19575 19568 19574 1    
 19576 19569 19575 1    
 19577 19570 19571 1    
 19578 19571 19578 1    
 19579 19571 19580 1    
 19580 19571 19579 1    
 19581 19581 19587 1    
 19582 19581 19596 1    
 19583 19582 19590 2    
 19584 19583 19590 am   BACKBONE|DICT|INTERRES
 19585 19583 19584 1    
 19586 19583 19597 1    
 19587 19584 19589 ar   
 19588 19584 19585 ar   
 19589 19585 19592 1    
 19590 19585 19586 ar   
 19591 19586 19593 1    
 19592 19586 19587 ar   
 19593 19587 19588 ar   
 19594 19588 19594 1    
 19595 19588 19589 ar   
 19596 19589 19595 1    
 19597 19590 19591 1    
 19598 19591 19598 1    
 19599 19591 19600 1    
 19600 19591 19599 1    
 19601 19601 19616 1    
 19602 19601 19607 1    
 19603 19602 19610 2    
 19604 19603 19617 1    
 19605 19603 19610 am   BACKBONE|DICT|INTERRES
 19606 19603 19604 1    
 19607 19604 19605 ar   
 19608 19604 19609 ar   
 19609 19605 19612 1    
 19610 19605 19606 ar   
 19611 19606 19607 ar   
 19612 19606 19613 1    
 19613 19607 19608 ar   
 19614 19608 19609 ar   
 19615 19608 19614 1    
 19616 19609 19615 1    
 19617 19610 19611 1    
 19618 19611 19619 1    
 19619 19611 19618 1    
 19620 19611 19620 1    
 19621 19621 19636 1    
 19622 19621 19627 1    
 19623 19622 19630 2    
 19624 19623 19624 1    
 19625 19623 19637 1    
 19626 19623 19630 am   BACKBONE|DICT|INTERRES
 19627 19624 19625 ar   
 19628 19624 19629 ar   
 19629 19625 19626 ar   
 19630 19625 19632 1    
 19631 19626 19633 1    
 19632 19626 19627 ar   
 19633 19627 19628 ar   
 19634 19628 19634 1    
 19635 19628 19629 ar   
 19636 19629 19635 1    
 19637 19630 19631 1    
 19638 19631 19639 1    
 19639 19631 19638 1    
 19640 19631 19640 1    
 19641 19641 19656 1    
 19642 19641 19647 1    
 19643 19642 19650 2    
 19644 19643 19644 1    
 19645 19643 19657 1    
 19646 19643 19650 am   BACKBONE|DICT|INTERRES
 19647 19644 19649 ar   
 19648 19644 19645 ar   
 19649 19645 19646 ar   
 19650 19645 19652 1    
 19651 19646 19647 ar   
 19652 19646 19653 1    
 19653 19647 19648 ar   
 19654 19648 19649 ar   
 19655 19648 19654 1    
 19656 19649 19655 1    
 19657 19650 19651 1    
 19658 19651 19658 1    
 19659 19651 19660 1    
 19660 19651 19659 1    
 19661 19661 19667 1    
 19662 19661 19676 1    
 19663 19662 19670 2    
 19664 19663 19670 am   BACKBONE|DICT|INTERRES
 19665 19663 19664 1    
 19666 19663 19677 1    
 19667 19664 19669 ar   
 19668 19664 19665 ar   
 19669 19665 19672 1    
 19670 19665 19666 ar   
 19671 19666 19673 1    
 19672 19666 19667 ar   
 19673 19667 19668 ar   
 19674 19668 19674 1    
 19675 19668 19669 ar   
 19676 19669 19675 1    
 19677 19670 19671 1    
 19678 19671 19678 1    
 19679 19671 19680 1    
 19680 19671 19679 1    
 19681 19681 19696 1    
 19682 19681 19687 1    
 19683 19682 19690 2    
 19684 19683 19697 1    
 19685 19683 19690 am   BACKBONE|DICT|INTERRES
 19686 19683 19684 1    
 19687 19684 19685 ar   
 19688 19684 19689 ar   
 19689 19685 19692 1    
 19690 19685 19686 ar   
 19691 19686 19687 ar   
 19692 19686 19693 1    
 19693 19687 19688 ar   
 19694 19688 19689 ar   
 19695 19688 19694 1    
 19696 19689 19695 1    
 19697 19690 19691 1    
 19698 19691 19699 1    
 19699 19691 19698 1    
 19700 19691 19700 1    
 19701 19701 19716 1    
 19702 19701 19707 1    
 19703 19702 19710 2    
 19704 19703 19704 1    
 19705 19703 19717 1    
 19706 19703 19710 am   BACKBONE|DICT|INTERRES
 19707 19704 19705 ar   
 19708 19704 19709 ar   
 19709 19705 19706 ar   
 19710 19705 19712 1    
 19711 19706 19713 1    
 19712 19706 19707 ar   
 19713 19707 19708 ar   
 19714 19708 19714 1    
 19715 19708 19709 ar   
 19716 19709 19715 1    
 19717 19710 19711 1    
 19718 19711 19719 1    
 19719 19711 19718 1    
 19720 19711 19720 1    
 19721 19721 19736 1    
 19722 19721 19727 1    
 19723 19722 19730 2    
 19724 19723 19724 1    
 19725 19723 19737 1    
 19726 19723 19730 am   BACKBONE|DICT|INTERRES
 19727 19724 19729 ar   
 19728 19724 19725 ar   
 19729 19725 19726 ar   
 19730 19725 19732 1    
 19731 19726 19727 ar   
 19732 19726 19733 1    
 19733 19727 19728 ar   
 19734 19728 19729 ar   
 19735 19728 19734 1    
 19736 19729 19735 1    
 19737 19730 19731 1    
 19738 19731 19738 1    
 19739 19731 19740 1    
 19740 19731 19739 1    
 19741 19741 19747 1    
 19742 19741 19756 1    
 19743 19742 19750 2    
 19744 19743 19750 am   BACKBONE|DICT|INTERRES
 19745 19743 19744 1    
 19746 19743 19757 1    
 19747 19744 19749 ar   
 19748 19744 19745 ar   
 19749 19745 19752 1    
 19750 19745 19746 ar   
 19751 19746 19753 1    
 19752 19746 19747 ar   
 19753 19747 19748 ar   
 19754 19748 19754 1    
 19755 19748 19749 ar   
 19756 19749 19755 1    
 19757 19750 19751 1    
 19758 19751 19758 1    
 19759 19751 19760 1    
 19760 19751 19759 1    
 19761 19761 19776 1    
 19762 19761 19767 1    
 19763 19762 19770 2    
 19764 19763 19777 1    
 19765 19763 19770 am   BACKBONE|DICT|INTERRES
 19766 19763 19764 1    
 19767 19764 19765 ar   
 19768 19764 19769 ar   
 19769 19765 19772 1    
 19770 19765 19766 ar   
 19771 19766 19767 ar   
 19772 19766 19773 1    
 19773 19767 19768 ar   
 19774 19768 19769 ar   
 19775 19768 19774 1    
 19776 19769 19775 1    
 19777 19770 19771 1    
 19778 19771 19779 1    
 19779 19771 19778 1    
 19780 19771 19780 1    
 19781 19781 19796 1    
 19782 19781 19787 1    
 19783 19782 19790 2    
 19784 19783 19784 1    
 19785 19783 19797 1    
 19786 19783 19790 am   BACKBONE|DICT|INTERRES
 19787 19784 19785 ar   
 19788 19784 19789 ar   
 19789 19785 19786 ar   
 19790 19785 19792 1    
 19791 19786 19793 1    
 19792 19786 19787 ar   
 19793 19787 19788 ar   
 19794 19788 19794 1    
 19795 19788 19789 ar   
 19796 19789 19795 1    
 19797 19790 19791 1    
 19798 19791 19799 1    
 19799 19791 19798 1    
 19800 19791 19800 1    
 19801 19801 19816 1    
 19802 19801 19807 1    
 19803 19802 19810 2    
 19804 19803 19804 1    
 19805 19803 19817 1    
 19806 19803 19810 am   BACKBONE|DICT|INTERRES
 19807 19804 19809 ar   
 19808 19804 19805 ar   
 19809 19805 19806 ar   
 19810 19805 19812 1    
 19811 19806 19807 ar   
 19812 19806 19813 1    
 19813 19807 19808 ar   
 19814 19808 19809 ar   
 19815 19808 19814 1    
 19816 19809 19815 1    
 19817 19810 19811 1    
 19818 19811 19818 1    
 19819 19811 19820 1    
 19820 19811 19819 1    
 19821 19821 19827 1    
 19822 19821 19836 1    
 19823 19822 19830 2    
 19824 19823 19830 am   BACKBONE|DICT|INTERRES
 19825 19823 19824 1    
 19826 19823 19837 1    
 19827 19824 19829 ar   
 19828 19824 19825 ar   
 19829 19825 19832 1    
 19830 19825 19826 ar   
 19831 19826 19833 1    
 19832 19826 19827 ar   
 19833 19827 19828 ar   
 19834 19828 19834 1    
 19835 19828 19829 ar   
 19836 19829 19835 1    
 19837 19830 19831 1    
 19838 19831 19838 1    
 19839 19831 19840 1    
 19840 19831 19839 1    
 19841 19841 19856 1    
 19842 19841 19847 1    
 19843 19842 19850 2    
 19844 19843 19857 1    
 19845 19843 19850 am   BACKBONE|DICT|INTERRES
 19846 19843 19844 1    
 19847 19844 19845 ar   
 19848 19844 19849 ar   
 19849 19845 19852 1    
 19850 19845 19846 ar   
 19851 19846 19847 ar   
 19852 19846 19853 1    
 19853 19847 19848 ar   
 19854 19848 19849 ar   
 19855 19848 19854 1    
 19856 19849 19855 1    
 19857 19850 19851 1    
 19858 19851 19859 1    
 19859 19851 19858 1    
 19860 19851 19860 1    
 19861 19861 19876 1    
 19862 19861 19867 1    
 19863 19862 19870 2    
 19864 19863 19864 1    
 19865 19863 19877 1    
 19866 19863 19870 am   BACKBONE|DICT|INTERRES
 19867 19864 19865 ar   
 19868 19864 19869 ar   
 19869 19865 19866 ar   
 19870 19865 19872 1    
 19871 19866 19873 1    
 19872 19866 19867 ar   
 19873 19867 19868 ar   
 19874 19868 19874 1    
 19875 19868 19869 ar   
 19876 19869 19875 1    
 19877 19870 19871 1    
 19878 19871 19879 1    
 19879 19871 19878 1    
 19880 19871 19880 1    
 19881 19881 19896 1    
 19882 19881 19887 1    
 19883 19882 19890 2    
 19884 19883 19884 1    
 19885 19883 19897 1    
 19886 19883 19890 am   BACKBONE|DICT|INTERRES
 19887 19884 19889 ar   
 19888 19884 19885 ar   
 19889 19885 19886 ar   
 19890 19885 19892 1    
 19891 19886 19887 ar   
 19892 19886 19893 1    
 19893 19887 19888 ar   
 19894 19888 19889 ar   
 19895 19888 19894 1    
 19896 19889 19895 1    
 19897 19890 19891 1    
 19898 19891 19898 1    
 19899 19891 19900 1    
 19900 19891 19899 1    
 19901 19901 19907 1    
 19902 19901 19916 1    
 19903 19902 19910 2    
 19904 19903 19910 am   BACKBONE|DICT|INTERRES
 19905 19903 19904 1    
 19906 19903 19917 1    
 19907 19904 19909 ar   
 19908 19904 19905 ar   
 19909 19905 19912 1    
 19910 19905 19906 ar   
 19911 19906 19913 1    
 19912 19906 19907 ar   
 19913 19907 19908 ar   
 19914 19908 19914 1    
 19915 19908 19909 ar   
 19916 19909 19915 1    
 19917 19910 19911 1    
 19918 19911 19918 1    
 19919 19911 19920 1    
 19920 19911 19919 1    
 19921 19921 19936 1    
 19922 19921 19927 1    
 19923 19922 19930 2    
 19924 19923 19937 1    
 19925 19923 19930 am   BACKBONE|DICT|INTERRES
 19926 19923 19924 1    
 19927 19924 19925 ar   
 19928 19924 19929 ar   
 19929 19925 19932 1    
 19930 19925 19926 ar   
 19931 19926 19927 ar   
 19932 19926 19933 1    
 19933 19927 19928 ar   
 19934 19928 19929 ar   
 19935 19928 19934 1    
 19936 19929 19935 1    
 19937 19930 19931 1    
 19938 19931 19939 1    
 19939 19931 19938 1    
 19940 19931 19940 1    
 19941 19941 19956 1    
 19942 19941 19947 1    
 19943 19942 19950 2    
 19944 19943 19944 1    
 19945 19943 19957 1    
 19946 19943 19950 am   BACKBONE|DICT|INTERRES
 19947 19944 19945 ar   
 19948 19944 19949 ar   
 19949 19945 19946 ar   
 19950 19945 19952 1    
 19951 19946 19953 1    
 19952 19946 19947 ar   
 19953 19947 19948 ar   
 19954 19948 19954 1    
 19955 19948 19949 ar   
 19956 19949 19955 1    
 19957 19950 19951 1    
 19958 19951 19959 1    
 19959 19951 19958 1    
 19960 19951 19960 1    
 19961 19961 19976 1    
 19962 19961 19967 1    
 19963 19962 19970 2    
 19964 19963 19964 1    
 19965 19963 19977 1    
 19966 19963 19970 am   BACKBONE|DICT|INTERRES
 19967 19964 19969 ar   
 19968 19964 19965 ar   
 19969 19965 19966 ar   
 19970 19965 19972 1    
 19971 19966 19967 ar   
 19972 19966 19973 1    
 19973 19967 19968 ar   
 19974 19968 19969 ar   
 19975 19968 19974 1    
 19976 19969 19975 1    
 19977 19970 19971 1    
 19978 19971 19978 1    
 19979 19971 19980 1    
 19980 19971 19979 1    
 19981 19981 19987 1    
 19982 19981 19996 1    
 19983 19982 19990 2    
 19984 19983 19990 am   BACKBONE|DICT|INTERRES
 19985 19983 19984 1    
 19986 19983 19997 1    
 19987 19984 19989 ar   
 19988 19984 19985 ar   
 19989 19985 19992 1    
 19990 19985 19986 ar   
 19991 19986 19993 1    
 19992 19986 19987 ar   
 19993 19987 19988 ar   
 19994 19988 19994 1    
 19995 19988 19989 ar   
 19996 19989 19995 1    
 19997 19990 19991 1    
 19998 19991 19998 1    
 19999 19991 20000 1    
 20000 19991 19999 1    
 20001 20001 20016 1    
 20002 20001 20007 1    
 20003 20002 20010 2    
 20004 20003 20017 1    
 20005 20003 20010 am   BACKBONE|DICT|INTERRES
 20006 20003 20004 1    
 20007 20004 20005 ar   
 20008 20004 20009 ar   
 20009 20005 20012 1    
 20010 20005 20006 ar   
 20011 20006 20007 ar   
 20012 20006 20013 1    
 20013 20007 20008 ar   
 20014 20008 20009 ar   
 20015 20008 20014 1    
 20016 20009 20015 1    
 20017 20010 20011 1    
 20018 20011 20019 1    
 20019 20011 20018 1    
 20020 20011 20020 1    
 20021 20021 20036 1    
 20022 20021 20027 1    
 20023 20022 20030 2    
 20024 20023 20024 1    
 20025 20023 20037 1    
 20026 20023 20030 am   BACKBONE|DICT|INTERRES
 20027 20024 20025 ar   
 20028 20024 20029 ar   
 20029 20025 20026 ar   
 20030 20025 20032 1    
 20031 20026 20033 1    
 20032 20026 20027 ar   
 20033 20027 20028 ar   
 20034 20028 20034 1    
 20035 20028 20029 ar   
 20036 20029 20035 1    
 20037 20030 20031 1    
 20038 20031 20039 1    
 20039 20031 20038 1    
 20040 20031 20040 1    
 20041 20041 20056 1    
 20042 20041 20047 1    
 20043 20042 20050 2    
 20044 20043 20044 1    
 20045 20043 20057 1    
 20046 20043 20050 am   BACKBONE|DICT|INTERRES
 20047 20044 20049 ar   
 20048 20044 20045 ar   
 20049 20045 20046 ar   
 20050 20045 20052 1    
 20051 20046 20047 ar   
 20052 20046 20053 1    
 20053 20047 20048 ar   
 20054 20048 20049 ar   
 20055 20048 20054 1    
 20056 20049 20055 1    
 20057 20050 20051 1    
 20058 20051 20058 1    
 20059 20051 20060 1    
 20060 20051 20059 1    
 20061 20061 20067 1    
 20062 20061 20076 1    
 20063 20062 20070 2    
 20064 20063 20070 am   BACKBONE|DICT|INTERRES
 20065 20063 20064 1    
 20066 20063 20077 1    
 20067 20064 20069 ar   
 20068 20064 20065 ar   
 20069 20065 20072 1    
 20070 20065 20066 ar   
 20071 20066 20073 1    
 20072 20066 20067 ar   
 20073 20067 20068 ar   
 20074 20068 20074 1    
 20075 20068 20069 ar   
 20076 20069 20075 1    
 20077 20070 20071 1    
 20078 20071 20078 1    
 20079 20071 20080 1    
 20080 20071 20079 1    
 20081 20081 20096 1    
 20082 20081 20087 1    
 20083 20082 20090 2    
 20084 20083 20097 1    
 20085 20083 20090 am   BACKBONE|DICT|INTERRES
 20086 20083 20084 1    
 20087 20084 20085 ar   
 20088 20084 20089 ar   
 20089 20085 20092 1    
 20090 20085 20086 ar   
 20091 20086 20087 ar   
 20092 20086 20093 1    
 20093 20087 20088 ar   
 20094 20088 20089 ar   
 20095 20088 20094 1    
 20096 20089 20095 1    
 20097 20090 20091 1    
 20098 20091 20099 1    
 20099 20091 20098 1    
 20100 20091 20100 1    
 20101 20101 20116 1    
 20102 20101 20107 1    
 20103 20102 20110 2    
 20104 20103 20104 1    
 20105 20103 20117 1    
 20106 20103 20110 am   BACKBONE|DICT|INTERRES
 20107 20104 20105 ar   
 20108 20104 20109 ar   
 20109 20105 20106 ar   
 20110 20105 20112 1    
 20111 20106 20113 1    
 20112 20106 20107 ar   
 20113 20107 20108 ar   
 20114 20108 20114 1    
 20115 20108 20109 ar   
 20116 20109 20115 1    
 20117 20110 20111 1    
 20118 20111 20119 1    
 20119 20111 20118 1    
 20120 20111 20120 1    
 20121 20121 20136 1    
 20122 20121 20127 1    
 20123 20122 20130 2    
 20124 20123 20124 1    
 20125 20123 20137 1    
 20126 20123 20130 am   BACKBONE|DICT|INTERRES
 20127 20124 20129 ar   
 20128 20124 20125 ar   
 20129 20125 20126 ar   
 20130 20125 20132 1    
 20131 20126 20127 ar   
 20132 20126 20133 1    
 20133 20127 20128 ar   
 20134 20128 20129 ar   
 20135 20128 20134 1    
 20136 20129 20135 1    
 20137 20130 20131 1    
 20138 20131 20138 1    
 20139 20131 20140 1    
 20140 20131 20139 1    
 20141 20141 20147 1    
 20142 20141 20156 1    
 20143 20142 20150 2    
 20144 20143 20150 am   BACKBONE|DICT|INTERRES
 20145 20143 20144 1    
 20146 20143 20157 1    
 20147 20144 20149 ar   
 20148 20144 20145 ar   
 20149 20145 20152 1    
 20150 20145 20146 ar   
 20151 20146 20153 1    
 20152 20146 20147 ar   
 20153 20147 20148 ar   
 20154 20148 20154 1    
 20155 20148 20149 ar   
 20156 20149 20155 1    
 20157 20150 20151 1    
 20158 20151 20158 1    
 20159 20151 20160 1    
 20160 20151 20159 1    
 20161 20161 20176 1    
 20162 20161 20167 1    
 20163 20162 20170 2    
 20164 20163 20177 1    
 20165 20163 20170 am   BACKBONE|DICT|INTERRES
 20166 20163 20164 1    
 20167 20164 20165 ar   
 20168 20164 20169 ar   
 20169 20165 20172 1    
 20170 20165 20166 ar   
 20171 20166 20167 ar   
 20172 20166 20173 1    
 20173 20167 20168 ar   
 20174 20168 20169 ar   
 20175 20168 20174 1    
 20176 20169 20175 1    
 20177 20170 20171 1    
 20178 20171 20179 1    
 20179 20171 20178 1    
 20180 20171 20180 1    
 20181 20181 20196 1    
 20182 20181 20187 1    
 20183 20182 20190 2    
 20184 20183 20184 1    
 20185 20183 20197 1    
 20186 20183 20190 am   BACKBONE|DICT|INTERRES
 20187 20184 20185 ar   
 20188 20184 20189 ar   
 20189 20185 20186 ar   
 20190 20185 20192 1    
 20191 20186 20193 1    
 20192 20186 20187 ar   
 20193 20187 20188 ar   
 20194 20188 20194 1    
 20195 20188 20189 ar   
 20196 20189 20195 1    
 20197 20190 20191 1    
 20198 20191 20199 1    
 20199 20191 20198 1    
 20200 20191 20200 1    
 20201 20201 20216 1    
 20202 20201 20207 1    
 20203 20202 20210 2    
 20204 20203 20204 1    
 20205 20203 20217 1    
 20206 20203 20210 am   BACKBONE|DICT|INTERRES
 20207 20204 20209 ar   
 20208 20204 20205 ar   
 20209 20205 20206 ar   
 20210 20205 20212 1    
 20211 20206 20207 ar   
 20212 20206 20213 1    
 20213 20207 20208 ar   
 20214 20208 20209 ar   
 20215 20208 20214 1    
 20216 20209 20215 1    
 20217 20210 20211 1    
 20218 20211 20218 1    
 20219 20211 20220 1    
 20220 20211 20219 1    
 20221 20221 20227 1    
 20222 20221 20236 1    
 20223 20222 20230 2    
 20224 20223 20230 am   BACKBONE|DICT|INTERRES
 20225 20223 20224 1    
 20226 20223 20237 1    
 20227 20224 20229 ar   
 20228 20224 20225 ar   
 20229 20225 20232 1    
 20230 20225 20226 ar   
 20231 20226 20233 1    
 20232 20226 20227 ar   
 20233 20227 20228 ar   
 20234 20228 20234 1    
 20235 20228 20229 ar   
 20236 20229 20235 1    
 20237 20230 20231 1    
 20238 20231 20238 1    
 20239 20231 20240 1    
 20240 20231 20239 1    
 20241 20241 20256 1    
 20242 20241 20247 1    
 20243 20242 20250 2    
 20244 20243 20257 1    
 20245 20243 20250 am   BACKBONE|DICT|INTERRES
 20246 20243 20244 1    
 20247 20244 20245 ar   
 20248 20244 20249 ar   
 20249 20245 20252 1    
 20250 20245 20246 ar   
 20251 20246 20247 ar   
 20252 20246 20253 1    
 20253 20247 20248 ar   
 20254 20248 20249 ar   
 20255 20248 20254 1    
 20256 20249 20255 1    
 20257 20250 20251 1    
 20258 20251 20259 1    
 20259 20251 20258 1    
 20260 20251 20260 1    
 20261 20261 20276 1    
 20262 20261 20267 1    
 20263 20262 20270 2    
 20264 20263 20264 1    
 20265 20263 20277 1    
 20266 20263 20270 am   BACKBONE|DICT|INTERRES
 20267 20264 20265 ar   
 20268 20264 20269 ar   
 20269 20265 20266 ar   
 20270 20265 20272 1    
 20271 20266 20273 1    
 20272 20266 20267 ar   
 20273 20267 20268 ar   
 20274 20268 20274 1    
 20275 20268 20269 ar   
 20276 20269 20275 1    
 20277 20270 20271 1    
 20278 20271 20279 1    
 20279 20271 20278 1    
 20280 20271 20280 1    
 20281 20281 20296 1    
 20282 20281 20287 1    
 20283 20282 20290 2    
 20284 20283 20284 1    
 20285 20283 20297 1    
 20286 20283 20290 am   BACKBONE|DICT|INTERRES
 20287 20284 20289 ar   
 20288 20284 20285 ar   
 20289 20285 20286 ar   
 20290 20285 20292 1    
 20291 20286 20287 ar   
 20292 20286 20293 1    
 20293 20287 20288 ar   
 20294 20288 20289 ar   
 20295 20288 20294 1    
 20296 20289 20295 1    
 20297 20290 20291 1    
 20298 20291 20298 1    
 20299 20291 20300 1    
 20300 20291 20299 1    
 20301 20301 20307 1    
 20302 20301 20316 1    
 20303 20302 20310 2    
 20304 20303 20310 am   BACKBONE|DICT|INTERRES
 20305 20303 20304 1    
 20306 20303 20317 1    
 20307 20304 20309 ar   
 20308 20304 20305 ar   
 20309 20305 20312 1    
 20310 20305 20306 ar   
 20311 20306 20313 1    
 20312 20306 20307 ar   
 20313 20307 20308 ar   
 20314 20308 20314 1    
 20315 20308 20309 ar   
 20316 20309 20315 1    
 20317 20310 20311 1    
 20318 20311 20318 1    
 20319 20311 20320 1    
 20320 20311 20319 1    
 20321 20321 20336 1    
 20322 20321 20327 1    
 20323 20322 20330 2    
 20324 20323 20337 1    
 20325 20323 20330 am   BACKBONE|DICT|INTERRES
 20326 20323 20324 1    
 20327 20324 20325 ar   
 20328 20324 20329 ar   
 20329 20325 20332 1    
 20330 20325 20326 ar   
 20331 20326 20327 ar   
 20332 20326 20333 1    
 20333 20327 20328 ar   
 20334 20328 20329 ar   
 20335 20328 20334 1    
 20336 20329 20335 1    
 20337 20330 20331 1    
 20338 20331 20339 1    
 20339 20331 20338 1    
 20340 20331 20340 1    
 20341 20341 20356 1    
 20342 20341 20347 1    
 20343 20342 20350 2    
 20344 20343 20344 1    
 20345 20343 20357 1    
 20346 20343 20350 am   BACKBONE|DICT|INTERRES
 20347 20344 20345 ar   
 20348 20344 20349 ar   
 20349 20345 20346 ar   
 20350 20345 20352 1    
 20351 20346 20353 1    
 20352 20346 20347 ar   
 20353 20347 20348 ar   
 20354 20348 20354 1    
 20355 20348 20349 ar   
 20356 20349 20355 1    
 20357 20350 20351 1    
 20358 20351 20359 1    
 20359 20351 20358 1    
 20360 20351 20360 1    
 20361 20361 20376 1    
 20362 20361 20367 1    
 20363 20362 20370 2    
 20364 20363 20364 1    
 20365 20363 20377 1    
 20366 20363 20370 am   BACKBONE|DICT|INTERRES
 20367 20364 20369 ar   
 20368 20364 20365 ar   
 20369 20365 20366 ar   
 20370 20365 20372 1    
 20371 20366 20367 ar   
 20372 20366 20373 1    
 20373 20367 20368 ar   
 20374 20368 20369 ar   
 20375 20368 20374 1    
 20376 20369 20375 1    
 20377 20370 20371 1    
 20378 20371 20378 1    
 20379 20371 20380 1    
 20380 20371 20379 1    
 20381 20381 20387 1    
 20382 20381 20396 1    
 20383 20382 20390 2    
 20384 20383 20390 am   BACKBONE|DICT|INTERRES
 20385 20383 20384 1    
 20386 20383 20397 1    
 20387 20384 20389 ar   
 20388 20384 20385 ar   
 20389 20385 20392 1    
 20390 20385 20386 ar   
 20391 20386 20393 1    
 20392 20386 20387 ar   
 20393 20387 20388 ar   
 20394 20388 20394 1    
 20395 20388 20389 ar   
 20396 20389 20395 1    
 20397 20390 20391 1    
 20398 20391 20398 1    
 20399 20391 20400 1    
 20400 20391 20399 1    
 20401 20401 20416 1    
 20402 20401 20407 1    
 20403 20402 20410 2    
 20404 20403 20417 1    
 20405 20403 20410 am   BACKBONE|DICT|INTERRES
 20406 20403 20404 1    
 20407 20404 20405 ar   
 20408 20404 20409 ar   
 20409 20405 20412 1    
 20410 20405 20406 ar   
 20411 20406 20407 ar   
 20412 20406 20413 1    
 20413 20407 20408 ar   
 20414 20408 20409 ar   
 20415 20408 20414 1    
 20416 20409 20415 1    
 20417 20410 20411 1    
 20418 20411 20419 1    
 20419 20411 20418 1    
 20420 20411 20420 1    
 20421 20421 20436 1    
 20422 20421 20427 1    
 20423 20422 20430 2    
 20424 20423 20424 1    
 20425 20423 20437 1    
 20426 20423 20430 am   BACKBONE|DICT|INTERRES
 20427 20424 20425 ar   
 20428 20424 20429 ar   
 20429 20425 20426 ar   
 20430 20425 20432 1    
 20431 20426 20433 1    
 20432 20426 20427 ar   
 20433 20427 20428 ar   
 20434 20428 20434 1    
 20435 20428 20429 ar   
 20436 20429 20435 1    
 20437 20430 20431 1    
 20438 20431 20439 1    
 20439 20431 20438 1    
 20440 20431 20440 1    
 20441 20441 20456 1    
 20442 20441 20447 1    
 20443 20442 20450 2    
 20444 20443 20444 1    
 20445 20443 20457 1    
 20446 20443 20450 am   BACKBONE|DICT|INTERRES
 20447 20444 20449 ar   
 20448 20444 20445 ar   
 20449 20445 20446 ar   
 20450 20445 20452 1    
 20451 20446 20447 ar   
 20452 20446 20453 1    
 20453 20447 20448 ar   
 20454 20448 20449 ar   
 20455 20448 20454 1    
 20456 20449 20455 1    
 20457 20450 20451 1    
 20458 20451 20458 1    
 20459 20451 20460 1    
 20460 20451 20459 1    
 20461 20461 20467 1    
 20462 20461 20476 1    
 20463 20462 20470 2    
 20464 20463 20470 am   BACKBONE|DICT|INTERRES
 20465 20463 20464 1    
 20466 20463 20477 1    
 20467 20464 20469 ar   
 20468 20464 20465 ar   
 20469 20465 20472 1    
 20470 20465 20466 ar   
 20471 20466 20473 1    
 20472 20466 20467 ar   
 20473 20467 20468 ar   
 20474 20468 20474 1    
 20475 20468 20469 ar   
 20476 20469 20475 1    
 20477 20470 20471 1    
 20478 20471 20478 1    
 20479 20471 20480 1    
 20480 20471 20479 1    
 20481 20481 20496 1    
 20482 20481 20487 1    
 20483 20482 20490 2    
 20484 20483 20497 1    
 20485 20483 20490 am   BACKBONE|DICT|INTERRES
 20486 20483 20484 1    
 20487 20484 20485 ar   
 20488 20484 20489 ar   
 20489 20485 20492 1    
 20490 20485 20486 ar   
 20491 20486 20487 ar   
 20492 20486 20493 1    
 20493 20487 20488 ar   
 20494 20488 20489 ar   
 20495 20488 20494 1    
 20496 20489 20495 1    
 20497 20490 20491 1    
 20498 20491 20499 1    
 20499 20491 20498 1    
 20500 20491 20500 1    
 20501 20501 20516 1    
 20502 20501 20507 1    
 20503 20502 20510 2    
 20504 20503 20504 1    
 20505 20503 20517 1    
 20506 20503 20510 am   BACKBONE|DICT|INTERRES
 20507 20504 20505 ar   
 20508 20504 20509 ar   
 20509 20505 20506 ar   
 20510 20505 20512 1    
 20511 20506 20513 1    
 20512 20506 20507 ar   
 20513 20507 20508 ar   
 20514 20508 20514 1    
 20515 20508 20509 ar   
 20516 20509 20515 1    
 20517 20510 20511 1    
 20518 20511 20519 1    
 20519 20511 20518 1    
 20520 20511 20520 1    
 20521 20521 20536 1    
 20522 20521 20527 1    
 20523 20522 20530 2    
 20524 20523 20524 1    
 20525 20523 20537 1    
 20526 20523 20530 am   BACKBONE|DICT|INTERRES
 20527 20524 20529 ar   
 20528 20524 20525 ar   
 20529 20525 20526 ar   
 20530 20525 20532 1    
 20531 20526 20527 ar   
 20532 20526 20533 1    
 20533 20527 20528 ar   
 20534 20528 20529 ar   
 20535 20528 20534 1    
 20536 20529 20535 1    
 20537 20530 20531 1    
 20538 20531 20538 1    
 20539 20531 20540 1    
 20540 20531 20539 1    
 20541 20541 20547 1    
 20542 20541 20556 1    
 20543 20542 20550 2    
 20544 20543 20550 am   BACKBONE|DICT|INTERRES
 20545 20543 20544 1    
 20546 20543 20557 1    
 20547 20544 20549 ar   
 20548 20544 20545 ar   
 20549 20545 20552 1    
 20550 20545 20546 ar   
 20551 20546 20553 1    
 20552 20546 20547 ar   
 20553 20547 20548 ar   
 20554 20548 20554 1    
 20555 20548 20549 ar   
 20556 20549 20555 1    
 20557 20550 20551 1    
 20558 20551 20558 1    
 20559 20551 20560 1    
 20560 20551 20559 1    
 20561 20561 20576 1    
 20562 20561 20567 1    
 20563 20562 20570 2    
 20564 20563 20577 1    
 20565 20563 20570 am   BACKBONE|DICT|INTERRES
 20566 20563 20564 1    
 20567 20564 20565 ar   
 20568 20564 20569 ar   
 20569 20565 20572 1    
 20570 20565 20566 ar   
 20571 20566 20567 ar   
 20572 20566 20573 1    
 20573 20567 20568 ar   
 20574 20568 20569 ar   
 20575 20568 20574 1    
 20576 20569 20575 1    
 20577 20570 20571 1    
 20578 20571 20579 1    
 20579 20571 20578 1    
 20580 20571 20580 1    
 20581 20581 20596 1    
 20582 20581 20587 1    
 20583 20582 20590 2    
 20584 20583 20584 1    
 20585 20583 20597 1    
 20586 20583 20590 am   BACKBONE|DICT|INTERRES
 20587 20584 20585 ar   
 20588 20584 20589 ar   
 20589 20585 20586 ar   
 20590 20585 20592 1    
 20591 20586 20593 1    
 20592 20586 20587 ar   
 20593 20587 20588 ar   
 20594 20588 20594 1    
 20595 20588 20589 ar   
 20596 20589 20595 1    
 20597 20590 20591 1    
 20598 20591 20599 1    
 20599 20591 20598 1    
 20600 20591 20600 1    
 20601 20601 20616 1    
 20602 20601 20607 1    
 20603 20602 20610 2    
 20604 20603 20604 1    
 20605 20603 20617 1    
 20606 20603 20610 am   BACKBONE|DICT|INTERRES
 20607 20604 20609 ar   
 20608 20604 20605 ar   
 20609 20605 20606 ar   
 20610 20605 20612 1    
 20611 20606 20607 ar   
 20612 20606 20613 1    
 20613 20607 20608 ar   
 20614 20608 20609 ar   
 20615 20608 20614 1    
 20616 20609 20615 1    
 20617 20610 20611 1    
 20618 20611 20618 1    
 20619 20611 20620 1    
 20620 20611 20619 1    
 20621 20621 20627 1    
 20622 20621 20636 1    
 20623 20622 20630 2    
 20624 20623 20630 am   BACKBONE|DICT|INTERRES
 20625 20623 20624 1    
 20626 20623 20637 1    
 20627 20624 20629 ar   
 20628 20624 20625 ar   
 20629 20625 20632 1    
 20630 20625 20626 ar   
 20631 20626 20633 1    
 20632 20626 20627 ar   
 20633 20627 20628 ar   
 20634 20628 20634 1    
 20635 20628 20629 ar   
 20636 20629 20635 1    
 20637 20630 20631 1    
 20638 20631 20638 1    
 20639 20631 20640 1    
 20640 20631 20639 1    
 20641 20641 20656 1    
 20642 20641 20647 1    
 20643 20642 20650 2    
 20644 20643 20657 1    
 20645 20643 20650 am   BACKBONE|DICT|INTERRES
 20646 20643 20644 1    
 20647 20644 20645 ar   
 20648 20644 20649 ar   
 20649 20645 20652 1    
 20650 20645 20646 ar   
 20651 20646 20647 ar   
 20652 20646 20653 1    
 20653 20647 20648 ar   
 20654 20648 20649 ar   
 20655 20648 20654 1    
 20656 20649 20655 1    
 20657 20650 20651 1    
 20658 20651 20659 1    
 20659 20651 20658 1    
 20660 20651 20660 1    
 20661 20661 20676 1    
 20662 20661 20667 1    
 20663 20662 20670 2    
 20664 20663 20664 1    
 20665 20663 20677 1    
 20666 20663 20670 am   BACKBONE|DICT|INTERRES
 20667 20664 20665 ar   
 20668 20664 20669 ar   
 20669 20665 20666 ar   
 20670 20665 20672 1    
 20671 20666 20673 1    
 20672 20666 20667 ar   
 20673 20667 20668 ar   
 20674 20668 20674 1    
 20675 20668 20669 ar   
 20676 20669 20675 1    
 20677 20670 20671 1    
 20678 20671 20679 1    
 20679 20671 20678 1    
 20680 20671 20680 1    
 20681 20681 20696 1    
 20682 20681 20687 1    
 20683 20682 20690 2    
 20684 20683 20684 1    
 20685 20683 20697 1    
 20686 20683 20690 am   BACKBONE|DICT|INTERRES
 20687 20684 20689 ar   
 20688 20684 20685 ar   
 20689 20685 20686 ar   
 20690 20685 20692 1    
 20691 20686 20687 ar   
 20692 20686 20693 1    
 20693 20687 20688 ar   
 20694 20688 20689 ar   
 20695 20688 20694 1    
 20696 20689 20695 1    
 20697 20690 20691 1    
 20698 20691 20698 1    
 20699 20691 20700 1    
 20700 20691 20699 1    
 20701 20701 20707 1    
 20702 20701 20716 1    
 20703 20702 20710 2    
 20704 20703 20710 am   BACKBONE|DICT|INTERRES
 20705 20703 20704 1    
 20706 20703 20717 1    
 20707 20704 20709 ar   
 20708 20704 20705 ar   
 20709 20705 20712 1    
 20710 20705 20706 ar   
 20711 20706 20713 1    
 20712 20706 20707 ar   
 20713 20707 20708 ar   
 20714 20708 20714 1    
 20715 20708 20709 ar   
 20716 20709 20715 1    
 20717 20710 20711 1    
 20718 20711 20718 1    
 20719 20711 20720 1    
 20720 20711 20719 1    
 20721 20721 20736 1    
 20722 20721 20727 1    
 20723 20722 20730 2    
 20724 20723 20737 1    
 20725 20723 20730 am   BACKBONE|DICT|INTERRES
 20726 20723 20724 1    
 20727 20724 20725 ar   
 20728 20724 20729 ar   
 20729 20725 20732 1    
 20730 20725 20726 ar   
 20731 20726 20727 ar   
 20732 20726 20733 1    
 20733 20727 20728 ar   
 20734 20728 20729 ar   
 20735 20728 20734 1    
 20736 20729 20735 1    
 20737 20730 20731 1    
 20738 20731 20739 1    
 20739 20731 20738 1    
 20740 20731 20740 1    
 20741 20741 20756 1    
 20742 20741 20747 1    
 20743 20742 20750 2    
 20744 20743 20744 1    
 20745 20743 20757 1    
 20746 20743 20750 am   BACKBONE|DICT|INTERRES
 20747 20744 20745 ar   
 20748 20744 20749 ar   
 20749 20745 20746 ar   
 20750 20745 20752 1    
 20751 20746 20753 1    
 20752 20746 20747 ar   
 20753 20747 20748 ar   
 20754 20748 20754 1    
 20755 20748 20749 ar   
 20756 20749 20755 1    
 20757 20750 20751 1    
 20758 20751 20759 1    
 20759 20751 20758 1    
 20760 20751 20760 1    
 20761 20761 20776 1    
 20762 20761 20767 1    
 20763 20762 20770 2    
 20764 20763 20764 1    
 20765 20763 20777 1    
 20766 20763 20770 am   BACKBONE|DICT|INTERRES
 20767 20764 20769 ar   
 20768 20764 20765 ar   
 20769 20765 20766 ar   
 20770 20765 20772 1    
 20771 20766 20767 ar   
 20772 20766 20773 1    
 20773 20767 20768 ar   
 20774 20768 20769 ar   
 20775 20768 20774 1    
 20776 20769 20775 1    
 20777 20770 20771 1    
 20778 20771 20778 1    
 20779 20771 20780 1    
 20780 20771 20779 1    
 20781 20781 20787 1    
 20782 20781 20796 1    
 20783 20782 20790 2    
 20784 20783 20790 am   BACKBONE|DICT|INTERRES
 20785 20783 20784 1    
 20786 20783 20797 1    
 20787 20784 20789 ar   
 20788 20784 20785 ar   
 20789 20785 20792 1    
 20790 20785 20786 ar   
 20791 20786 20793 1    
 20792 20786 20787 ar   
 20793 20787 20788 ar   
 20794 20788 20794 1    
 20795 20788 20789 ar   
 20796 20789 20795 1    
 20797 20790 20791 1    
 20798 20791 20798 1    
 20799 20791 20800 1    
 20800 20791 20799 1    
 20801 20801 20816 1    
 20802 20801 20807 1    
 20803 20802 20810 2    
 20804 20803 20817 1    
 20805 20803 20810 am   BACKBONE|DICT|INTERRES
 20806 20803 20804 1    
 20807 20804 20805 ar   
 20808 20804 20809 ar   
 20809 20805 20812 1    
 20810 20805 20806 ar   
 20811 20806 20807 ar   
 20812 20806 20813 1    
 20813 20807 20808 ar   
 20814 20808 20809 ar   
 20815 20808 20814 1    
 20816 20809 20815 1    
 20817 20810 20811 1    
 20818 20811 20819 1    
 20819 20811 20818 1    
 20820 20811 20820 1    
 20821 20821 20836 1    
 20822 20821 20827 1    
 20823 20822 20830 2    
 20824 20823 20824 1    
 20825 20823 20837 1    
 20826 20823 20830 am   BACKBONE|DICT|INTERRES
 20827 20824 20825 ar   
 20828 20824 20829 ar   
 20829 20825 20826 ar   
 20830 20825 20832 1    
 20831 20826 20833 1    
 20832 20826 20827 ar   
 20833 20827 20828 ar   
 20834 20828 20834 1    
 20835 20828 20829 ar   
 20836 20829 20835 1    
 20837 20830 20831 1    
 20838 20831 20839 1    
 20839 20831 20838 1    
 20840 20831 20840 1    
 20841 20841 20856 1    
 20842 20841 20847 1    
 20843 20842 20850 2    
 20844 20843 20844 1    
 20845 20843 20857 1    
 20846 20843 20850 am   BACKBONE|DICT|INTERRES
 20847 20844 20849 ar   
 20848 20844 20845 ar   
 20849 20845 20846 ar   
 20850 20845 20852 1    
 20851 20846 20847 ar   
 20852 20846 20853 1    
 20853 20847 20848 ar   
 20854 20848 20849 ar   
 20855 20848 20854 1    
 20856 20849 20855 1    
 20857 20850 20851 1    
 20858 20851 20858 1    
 20859 20851 20860 1    
 20860 20851 20859 1    
 20861 20861 20867 1    
 20862 20861 20876 1    
 20863 20862 20870 2    
 20864 20863 20870 am   BACKBONE|DICT|INTERRES
 20865 20863 20864 1    
 20866 20863 20877 1    
 20867 20864 20869 ar   
 20868 20864 20865 ar   
 20869 20865 20872 1    
 20870 20865 20866 ar   
 20871 20866 20873 1    
 20872 20866 20867 ar   
 20873 20867 20868 ar   
 20874 20868 20874 1    
 20875 20868 20869 ar   
 20876 20869 20875 1    
 20877 20870 20871 1    
 20878 20871 20878 1    
 20879 20871 20880 1    
 20880 20871 20879 1    
 20881 20881 20896 1    
 20882 20881 20887 1    
 20883 20882 20890 2    
 20884 20883 20897 1    
 20885 20883 20890 am   BACKBONE|DICT|INTERRES
 20886 20883 20884 1    
 20887 20884 20885 ar   
 20888 20884 20889 ar   
 20889 20885 20892 1    
 20890 20885 20886 ar   
 20891 20886 20887 ar   
 20892 20886 20893 1    
 20893 20887 20888 ar   
 20894 20888 20889 ar   
 20895 20888 20894 1    
 20896 20889 20895 1    
 20897 20890 20891 1    
 20898 20891 20899 1    
 20899 20891 20898 1    
 20900 20891 20900 1    
 20901 20901 20916 1    
 20902 20901 20907 1    
 20903 20902 20910 2    
 20904 20903 20904 1    
 20905 20903 20917 1    
 20906 20903 20910 am   BACKBONE|DICT|INTERRES
 20907 20904 20905 ar   
 20908 20904 20909 ar   
 20909 20905 20906 ar   
 20910 20905 20912 1    
 20911 20906 20913 1    
 20912 20906 20907 ar   
 20913 20907 20908 ar   
 20914 20908 20914 1    
 20915 20908 20909 ar   
 20916 20909 20915 1    
 20917 20910 20911 1    
 20918 20911 20919 1    
 20919 20911 20918 1    
 20920 20911 20920 1    
 20921 20921 20936 1    
 20922 20921 20927 1    
 20923 20922 20930 2    
 20924 20923 20924 1    
 20925 20923 20937 1    
 20926 20923 20930 am   BACKBONE|DICT|INTERRES
 20927 20924 20929 ar   
 20928 20924 20925 ar   
 20929 20925 20926 ar   
 20930 20925 20932 1    
 20931 20926 20927 ar   
 20932 20926 20933 1    
 20933 20927 20928 ar   
 20934 20928 20929 ar   
 20935 20928 20934 1    
 20936 20929 20935 1    
 20937 20930 20931 1    
 20938 20931 20938 1    
 20939 20931 20940 1    
 20940 20931 20939 1    
 20941 20941 20947 1    
 20942 20941 20956 1    
 20943 20942 20950 2    
 20944 20943 20950 am   BACKBONE|DICT|INTERRES
 20945 20943 20944 1    
 20946 20943 20957 1    
 20947 20944 20949 ar   
 20948 20944 20945 ar   
 20949 20945 20952 1    
 20950 20945 20946 ar   
 20951 20946 20953 1    
 20952 20946 20947 ar   
 20953 20947 20948 ar   
 20954 20948 20954 1    
 20955 20948 20949 ar   
 20956 20949 20955 1    
 20957 20950 20951 1    
 20958 20951 20958 1    
 20959 20951 20960 1    
 20960 20951 20959 1    
 20961 20961 20976 1    
 20962 20961 20967 1    
 20963 20962 20970 2    
 20964 20963 20977 1    
 20965 20963 20970 am   BACKBONE|DICT|INTERRES
 20966 20963 20964 1    
 20967 20964 20965 ar   
 20968 20964 20969 ar   
 20969 20965 20972 1    
 20970 20965 20966 ar   
 20971 20966 20967 ar   
 20972 20966 20973 1    
 20973 20967 20968 ar   
 20974 20968 20969 ar   
 20975 20968 20974 1    
 20976 20969 20975 1    
 20977 20970 20971 1    
 20978 20971 20979 1    
 20979 20971 20978 1    
 20980 20971 20980 1    
 20981 20981 20996 1    
 20982 20981 20987 1    
 20983 20982 20990 2    
 20984 20983 20984 1    
 20985 20983 20997 1    
 20986 20983 20990 am   BACKBONE|DICT|INTERRES
 20987 20984 20985 ar   
 20988 20984 20989 ar   
 20989 20985 20986 ar   
 20990 20985 20992 1    
 20991 20986 20993 1    
 20992 20986 20987 ar   
 20993 20987 20988 ar   
 20994 20988 20994 1    
 20995 20988 20989 ar   
 20996 20989 20995 1    
 20997 20990 20991 1    
 20998 20991 20999 1    
 20999 20991 20998 1    
 21000 20991 21000 1    
 21001 21001 21016 1    
 21002 21001 21007 1    
 21003 21002 21010 2    
 21004 21003 21004 1    
 21005 21003 21017 1    
 21006 21003 21010 am   BACKBONE|DICT|INTERRES
 21007 21004 21009 ar   
 21008 21004 21005 ar   
 21009 21005 21006 ar   
 21010 21005 21012 1    
 21011 21006 21007 ar   
 21012 21006 21013 1    
 21013 21007 21008 ar   
 21014 21008 21009 ar   
 21015 21008 21014 1    
 21016 21009 21015 1    
 21017 21010 21011 1    
 21018 21011 21018 1    
 21019 21011 21020 1    
 21020 21011 21019 1    
 21021 21021 21027 1    
 21022 21021 21036 1    
 21023 21022 21030 2    
 21024 21023 21030 am   BACKBONE|DICT|INTERRES
 21025 21023 21024 1    
 21026 21023 21037 1    
 21027 21024 21029 ar   
 21028 21024 21025 ar   
 21029 21025 21032 1    
 21030 21025 21026 ar   
 21031 21026 21033 1    
 21032 21026 21027 ar   
 21033 21027 21028 ar   
 21034 21028 21034 1    
 21035 21028 21029 ar   
 21036 21029 21035 1    
 21037 21030 21031 1    
 21038 21031 21038 1    
 21039 21031 21040 1    
 21040 21031 21039 1    
 21041 21041 21056 1    
 21042 21041 21047 1    
 21043 21042 21050 2    
 21044 21043 21057 1    
 21045 21043 21050 am   BACKBONE|DICT|INTERRES
 21046 21043 21044 1    
 21047 21044 21045 ar   
 21048 21044 21049 ar   
 21049 21045 21052 1    
 21050 21045 21046 ar   
 21051 21046 21047 ar   
 21052 21046 21053 1    
 21053 21047 21048 ar   
 21054 21048 21049 ar   
 21055 21048 21054 1    
 21056 21049 21055 1    
 21057 21050 21051 1    
 21058 21051 21059 1    
 21059 21051 21058 1    
 21060 21051 21060 1    
 21061 21061 21076 1    
 21062 21061 21067 1    
 21063 21062 21070 2    
 21064 21063 21064 1    
 21065 21063 21077 1    
 21066 21063 21070 am   BACKBONE|DICT|INTERRES
 21067 21064 21065 ar   
 21068 21064 21069 ar   
 21069 21065 21066 ar   
 21070 21065 21072 1    
 21071 21066 21073 1    
 21072 21066 21067 ar   
 21073 21067 21068 ar   
 21074 21068 21074 1    
 21075 21068 21069 ar   
 21076 21069 21075 1    
 21077 21070 21071 1    
 21078 21071 21079 1    
 21079 21071 21078 1    
 21080 21071 21080 1    
 21081 21081 21096 1    
 21082 21081 21087 1    
 21083 21082 21090 2    
 21084 21083 21084 1    
 21085 21083 21097 1    
 21086 21083 21090 am   BACKBONE|DICT|INTERRES
 21087 21084 21089 ar   
 21088 21084 21085 ar   
 21089 21085 21086 ar   
 21090 21085 21092 1    
 21091 21086 21087 ar   
 21092 21086 21093 1    
 21093 21087 21088 ar   
 21094 21088 21089 ar   
 21095 21088 21094 1    
 21096 21089 21095 1    
 21097 21090 21091 1    
 21098 21091 21098 1    
 21099 21091 21100 1    
 21100 21091 21099 1    
 21101 21101 21107 1    
 21102 21101 21116 1    
 21103 21102 21110 2    
 21104 21103 21110 am   BACKBONE|DICT|INTERRES
 21105 21103 21104 1    
 21106 21103 21117 1    
 21107 21104 21109 ar   
 21108 21104 21105 ar   
 21109 21105 21112 1    
 21110 21105 21106 ar   
 21111 21106 21113 1    
 21112 21106 21107 ar   
 21113 21107 21108 ar   
 21114 21108 21114 1    
 21115 21108 21109 ar   
 21116 21109 21115 1    
 21117 21110 21111 1    
 21118 21111 21118 1    
 21119 21111 21120 1    
 21120 21111 21119 1    
 21121 21121 21136 1    
 21122 21121 21127 1    
 21123 21122 21130 2    
 21124 21123 21137 1    
 21125 21123 21130 am   BACKBONE|DICT|INTERRES
 21126 21123 21124 1    
 21127 21124 21125 ar   
 21128 21124 21129 ar   
 21129 21125 21132 1    
 21130 21125 21126 ar   
 21131 21126 21127 ar   
 21132 21126 21133 1    
 21133 21127 21128 ar   
 21134 21128 21129 ar   
 21135 21128 21134 1    
 21136 21129 21135 1    
 21137 21130 21131 1    
 21138 21131 21139 1    
 21139 21131 21138 1    
 21140 21131 21140 1    
 21141 21141 21156 1    
 21142 21141 21147 1    
 21143 21142 21150 2    
 21144 21143 21144 1    
 21145 21143 21157 1    
 21146 21143 21150 am   BACKBONE|DICT|INTERRES
 21147 21144 21145 ar   
 21148 21144 21149 ar   
 21149 21145 21146 ar   
 21150 21145 21152 1    
 21151 21146 21153 1    
 21152 21146 21147 ar   
 21153 21147 21148 ar   
 21154 21148 21154 1    
 21155 21148 21149 ar   
 21156 21149 21155 1    
 21157 21150 21151 1    
 21158 21151 21159 1    
 21159 21151 21158 1    
 21160 21151 21160 1    
 21161 21161 21176 1    
 21162 21161 21167 1    
 21163 21162 21170 2    
 21164 21163 21164 1    
 21165 21163 21177 1    
 21166 21163 21170 am   BACKBONE|DICT|INTERRES
 21167 21164 21169 ar   
 21168 21164 21165 ar   
 21169 21165 21166 ar   
 21170 21165 21172 1    
 21171 21166 21167 ar   
 21172 21166 21173 1    
 21173 21167 21168 ar   
 21174 21168 21169 ar   
 21175 21168 21174 1    
 21176 21169 21175 1    
 21177 21170 21171 1    
 21178 21171 21178 1    
 21179 21171 21180 1    
 21180 21171 21179 1    
 21181 21181 21187 1    
 21182 21181 21196 1    
 21183 21182 21190 2    
 21184 21183 21190 am   BACKBONE|DICT|INTERRES
 21185 21183 21184 1    
 21186 21183 21197 1    
 21187 21184 21189 ar   
 21188 21184 21185 ar   
 21189 21185 21192 1    
 21190 21185 21186 ar   
 21191 21186 21193 1    
 21192 21186 21187 ar   
 21193 21187 21188 ar   
 21194 21188 21194 1    
 21195 21188 21189 ar   
 21196 21189 21195 1    
 21197 21190 21191 1    
 21198 21191 21198 1    
 21199 21191 21200 1    
 21200 21191 21199 1    
 21201 21201 21216 1    
 21202 21201 21207 1    
 21203 21202 21210 2    
 21204 21203 21217 1    
 21205 21203 21210 am   BACKBONE|DICT|INTERRES
 21206 21203 21204 1    
 21207 21204 21205 ar   
 21208 21204 21209 ar   
 21209 21205 21212 1    
 21210 21205 21206 ar   
 21211 21206 21207 ar   
 21212 21206 21213 1    
 21213 21207 21208 ar   
 21214 21208 21209 ar   
 21215 21208 21214 1    
 21216 21209 21215 1    
 21217 21210 21211 1    
 21218 21211 21219 1    
 21219 21211 21218 1    
 21220 21211 21220 1    
 21221 21221 21236 1    
 21222 21221 21227 1    
 21223 21222 21230 2    
 21224 21223 21224 1    
 21225 21223 21237 1    
 21226 21223 21230 am   BACKBONE|DICT|INTERRES
 21227 21224 21225 ar   
 21228 21224 21229 ar   
 21229 21225 21226 ar   
 21230 21225 21232 1    
 21231 21226 21233 1    
 21232 21226 21227 ar   
 21233 21227 21228 ar   
 21234 21228 21234 1    
 21235 21228 21229 ar   
 21236 21229 21235 1    
 21237 21230 21231 1    
 21238 21231 21239 1    
 21239 21231 21238 1    
 21240 21231 21240 1    
 21241 21241 21256 1    
 21242 21241 21247 1    
 21243 21242 21250 2    
 21244 21243 21244 1    
 21245 21243 21257 1    
 21246 21243 21250 am   BACKBONE|DICT|INTERRES
 21247 21244 21249 ar   
 21248 21244 21245 ar   
 21249 21245 21246 ar   
 21250 21245 21252 1    
 21251 21246 21247 ar   
 21252 21246 21253 1    
 21253 21247 21248 ar   
 21254 21248 21249 ar   
 21255 21248 21254 1    
 21256 21249 21255 1    
 21257 21250 21251 1    
 21258 21251 21258 1    
 21259 21251 21260 1    
 21260 21251 21259 1    
 21261 21261 21267 1    
 21262 21261 21276 1    
 21263 21262 21270 2    
 21264 21263 21270 am   BACKBONE|DICT|INTERRES
 21265 21263 21264 1    
 21266 21263 21277 1    
 21267 21264 21269 ar   
 21268 21264 21265 ar   
 21269 21265 21272 1    
 21270 21265 21266 ar   
 21271 21266 21273 1    
 21272 21266 21267 ar   
 21273 21267 21268 ar   
 21274 21268 21274 1    
 21275 21268 21269 ar   
 21276 21269 21275 1    
 21277 21270 21271 1    
 21278 21271 21278 1    
 21279 21271 21280 1    
 21280 21271 21279 1    
 21281 21281 21296 1    
 21282 21281 21287 1    
 21283 21282 21290 2    
 21284 21283 21297 1    
 21285 21283 21290 am   BACKBONE|DICT|INTERRES
 21286 21283 21284 1    
 21287 21284 21285 ar   
 21288 21284 21289 ar   
 21289 21285 21292 1    
 21290 21285 21286 ar   
 21291 21286 21287 ar   
 21292 21286 21293 1    
 21293 21287 21288 ar   
 21294 21288 21289 ar   
 21295 21288 21294 1    
 21296 21289 21295 1    
 21297 21290 21291 1    
 21298 21291 21299 1    
 21299 21291 21298 1    
 21300 21291 21300 1    
 21301 21301 21316 1    
 21302 21301 21307 1    
 21303 21302 21310 2    
 21304 21303 21304 1    
 21305 21303 21317 1    
 21306 21303 21310 am   BACKBONE|DICT|INTERRES
 21307 21304 21305 ar   
 21308 21304 21309 ar   
 21309 21305 21306 ar   
 21310 21305 21312 1    
 21311 21306 21313 1    
 21312 21306 21307 ar   
 21313 21307 21308 ar   
 21314 21308 21314 1    
 21315 21308 21309 ar   
 21316 21309 21315 1    
 21317 21310 21311 1    
 21318 21311 21319 1    
 21319 21311 21318 1    
 21320 21311 21320 1    
 21321 21321 21336 1    
 21322 21321 21327 1    
 21323 21322 21330 2    
 21324 21323 21324 1    
 21325 21323 21337 1    
 21326 21323 21330 am   BACKBONE|DICT|INTERRES
 21327 21324 21329 ar   
 21328 21324 21325 ar   
 21329 21325 21326 ar   
 21330 21325 21332 1    
 21331 21326 21327 ar   
 21332 21326 21333 1    
 21333 21327 21328 ar   
 21334 21328 21329 ar   
 21335 21328 21334 1    
 21336 21329 21335 1    
 21337 21330 21331 1    
 21338 21331 21338 1    
 21339 21331 21340 1    
 21340 21331 21339 1    
 21341 21341 21347 1    
 21342 21341 21356 1    
 21343 21342 21350 2    
 21344 21343 21350 am   BACKBONE|DICT|INTERRES
 21345 21343 21344 1    
 21346 21343 21357 1    
 21347 21344 21349 ar   
 21348 21344 21345 ar   
 21349 21345 21352 1    
 21350 21345 21346 ar   
 21351 21346 21353 1    
 21352 21346 21347 ar   
 21353 21347 21348 ar   
 21354 21348 21354 1    
 21355 21348 21349 ar   
 21356 21349 21355 1    
 21357 21350 21351 1    
 21358 21351 21358 1    
 21359 21351 21360 1    
 21360 21351 21359 1    
 21361 21361 21376 1    
 21362 21361 21367 1    
 21363 21362 21370 2    
 21364 21363 21377 1    
 21365 21363 21370 am   BACKBONE|DICT|INTERRES
 21366 21363 21364 1    
 21367 21364 21365 ar   
 21368 21364 21369 ar   
 21369 21365 21372 1    
 21370 21365 21366 ar   
 21371 21366 21367 ar   
 21372 21366 21373 1    
 21373 21367 21368 ar   
 21374 21368 21369 ar   
 21375 21368 21374 1    
 21376 21369 21375 1    
 21377 21370 21371 1    
 21378 21371 21379 1    
 21379 21371 21378 1    
 21380 21371 21380 1    
 21381 21381 21396 1    
 21382 21381 21387 1    
 21383 21382 21390 2    
 21384 21383 21384 1    
 21385 21383 21397 1    
 21386 21383 21390 am   BACKBONE|DICT|INTERRES
 21387 21384 21385 ar   
 21388 21384 21389 ar   
 21389 21385 21386 ar   
 21390 21385 21392 1    
 21391 21386 21393 1    
 21392 21386 21387 ar   
 21393 21387 21388 ar   
 21394 21388 21394 1    
 21395 21388 21389 ar   
 21396 21389 21395 1    
 21397 21390 21391 1    
 21398 21391 21399 1    
 21399 21391 21398 1    
 21400 21391 21400 1    
 21401 21401 21416 1    
 21402 21401 21407 1    
 21403 21402 21410 2    
 21404 21403 21404 1    
 21405 21403 21417 1    
 21406 21403 21410 am   BACKBONE|DICT|INTERRES
 21407 21404 21409 ar   
 21408 21404 21405 ar   
 21409 21405 21406 ar   
 21410 21405 21412 1    
 21411 21406 21407 ar   
 21412 21406 21413 1    
 21413 21407 21408 ar   
 21414 21408 21409 ar   
 21415 21408 21414 1    
 21416 21409 21415 1    
 21417 21410 21411 1    
 21418 21411 21418 1    
 21419 21411 21420 1    
 21420 21411 21419 1    
 21421 21421 21427 1    
 21422 21421 21436 1    
 21423 21422 21430 2    
 21424 21423 21430 am   BACKBONE|DICT|INTERRES
 21425 21423 21424 1    
 21426 21423 21437 1    
 21427 21424 21429 ar   
 21428 21424 21425 ar   
 21429 21425 21432 1    
 21430 21425 21426 ar   
 21431 21426 21433 1    
 21432 21426 21427 ar   
 21433 21427 21428 ar   
 21434 21428 21434 1    
 21435 21428 21429 ar   
 21436 21429 21435 1    
 21437 21430 21431 1    
 21438 21431 21438 1    
 21439 21431 21440 1    
 21440 21431 21439 1    
 21441 21441 21456 1    
 21442 21441 21447 1    
 21443 21442 21450 2    
 21444 21443 21457 1    
 21445 21443 21450 am   BACKBONE|DICT|INTERRES
 21446 21443 21444 1    
 21447 21444 21445 ar   
 21448 21444 21449 ar   
 21449 21445 21452 1    
 21450 21445 21446 ar   
 21451 21446 21447 ar   
 21452 21446 21453 1    
 21453 21447 21448 ar   
 21454 21448 21449 ar   
 21455 21448 21454 1    
 21456 21449 21455 1    
 21457 21450 21451 1    
 21458 21451 21459 1    
 21459 21451 21458 1    
 21460 21451 21460 1    
 21461 21461 21476 1    
 21462 21461 21467 1    
 21463 21462 21470 2    
 21464 21463 21464 1    
 21465 21463 21477 1    
 21466 21463 21470 am   BACKBONE|DICT|INTERRES
 21467 21464 21465 ar   
 21468 21464 21469 ar   
 21469 21465 21466 ar   
 21470 21465 21472 1    
 21471 21466 21473 1    
 21472 21466 21467 ar   
 21473 21467 21468 ar   
 21474 21468 21474 1    
 21475 21468 21469 ar   
 21476 21469 21475 1    
 21477 21470 21471 1    
 21478 21471 21479 1    
 21479 21471 21478 1    
 21480 21471 21480 1    
 21481 21481 21496 1    
 21482 21481 21487 1    
 21483 21482 21490 2    
 21484 21483 21484 1    
 21485 21483 21497 1    
 21486 21483 21490 am   BACKBONE|DICT|INTERRES
 21487 21484 21489 ar   
 21488 21484 21485 ar   
 21489 21485 21486 ar   
 21490 21485 21492 1    
 21491 21486 21487 ar   
 21492 21486 21493 1    
 21493 21487 21488 ar   
 21494 21488 21489 ar   
 21495 21488 21494 1    
 21496 21489 21495 1    
 21497 21490 21491 1    
 21498 21491 21498 1    
 21499 21491 21500 1    
 21500 21491 21499 1    
 21501 21501 21507 1    
 21502 21501 21516 1    
 21503 21502 21510 2    
 21504 21503 21510 am   BACKBONE|DICT|INTERRES
 21505 21503 21504 1    
 21506 21503 21517 1    
 21507 21504 21509 ar   
 21508 21504 21505 ar   
 21509 21505 21512 1    
 21510 21505 21506 ar   
 21511 21506 21513 1    
 21512 21506 21507 ar   
 21513 21507 21508 ar   
 21514 21508 21514 1    
 21515 21508 21509 ar   
 21516 21509 21515 1    
 21517 21510 21511 1    
 21518 21511 21518 1    
 21519 21511 21520 1    
 21520 21511 21519 1    
 21521 21521 21536 1    
 21522 21521 21527 1    
 21523 21522 21530 2    
 21524 21523 21537 1    
 21525 21523 21530 am   BACKBONE|DICT|INTERRES
 21526 21523 21524 1    
 21527 21524 21525 ar   
 21528 21524 21529 ar   
 21529 21525 21532 1    
 21530 21525 21526 ar   
 21531 21526 21527 ar   
 21532 21526 21533 1    
 21533 21527 21528 ar   
 21534 21528 21529 ar   
 21535 21528 21534 1    
 21536 21529 21535 1    
 21537 21530 21531 1    
 21538 21531 21539 1    
 21539 21531 21538 1    
 21540 21531 21540 1    
 21541 21541 21556 1    
 21542 21541 21547 1    
 21543 21542 21550 2    
 21544 21543 21544 1    
 21545 21543 21557 1    
 21546 21543 21550 am   BACKBONE|DICT|INTERRES
 21547 21544 21545 ar   
 21548 21544 21549 ar   
 21549 21545 21546 ar   
 21550 21545 21552 1    
 21551 21546 21553 1    
 21552 21546 21547 ar   
 21553 21547 21548 ar   
 21554 21548 21554 1    
 21555 21548 21549 ar   
 21556 21549 21555 1    
 21557 21550 21551 1    
 21558 21551 21559 1    
 21559 21551 21558 1    
 21560 21551 21560 1    
 21561 21561 21576 1    
 21562 21561 21567 1    
 21563 21562 21570 2    
 21564 21563 21564 1    
 21565 21563 21577 1    
 21566 21563 21570 am   BACKBONE|DICT|INTERRES
 21567 21564 21569 ar   
 21568 21564 21565 ar   
 21569 21565 21566 ar   
 21570 21565 21572 1    
 21571 21566 21567 ar   
 21572 21566 21573 1    
 21573 21567 21568 ar   
 21574 21568 21569 ar   
 21575 21568 21574 1    
 21576 21569 21575 1    
 21577 21570 21571 1    
 21578 21571 21578 1    
 21579 21571 21580 1    
 21580 21571 21579 1    
 21581 21581 21587 1    
 21582 21581 21596 1    
 21583 21582 21590 2    
 21584 21583 21590 am   BACKBONE|DICT|INTERRES
 21585 21583 21584 1    
 21586 21583 21597 1    
 21587 21584 21589 ar   
 21588 21584 21585 ar   
 21589 21585 21592 1    
 21590 21585 21586 ar   
 21591 21586 21593 1    
 21592 21586 21587 ar   
 21593 21587 21588 ar   
 21594 21588 21594 1    
 21595 21588 21589 ar   
 21596 21589 21595 1    
 21597 21590 21591 1    
 21598 21591 21598 1    
 21599 21591 21600 1    
 21600 21591 21599 1    
 21601 21601 21616 1    
 21602 21601 21607 1    
 21603 21602 21610 2    
 21604 21603 21617 1    
 21605 21603 21610 am   BACKBONE|DICT|INTERRES
 21606 21603 21604 1    
 21607 21604 21605 ar   
 21608 21604 21609 ar   
 21609 21605 21612 1    
 21610 21605 21606 ar   
 21611 21606 21607 ar   
 21612 21606 21613 1    
 21613 21607 21608 ar   
 21614 21608 21609 ar   
 21615 21608 21614 1    
 21616 21609 21615 1    
 21617 21610 21611 1    
 21618 21611 21619 1    
 21619 21611 21618 1    
 21620 21611 21620 1    
 21621 21621 21636 1    
 21622 21621 21627 1    
 21623 21622 21630 2    
 21624 21623 21624 1    
 21625 21623 21637 1    
 21626 21623 21630 am   BACKBONE|DICT|INTERRES
 21627 21624 21625 ar   
 21628 21624 21629 ar   
 21629 21625 21626 ar   
 21630 21625 21632 1    
 21631 21626 21633 1    
 21632 21626 21627 ar   
 21633 21627 21628 ar   
 21634 21628 21634 1    
 21635 21628 21629 ar   
 21636 21629 21635 1    
 21637 21630 21631 1    
 21638 21631 21639 1    
 21639 21631 21638 1    
 21640 21631 21640 1    
 21641 21641 21656 1    
 21642 21641 21647 1    
 21643 21642 21650 2    
 21644 21643 21644 1    
 21645 21643 21657 1    
 21646 21643 21650 am   BACKBONE|DICT|INTERRES
 21647 21644 21649 ar   
 21648 21644 21645 ar   
 21649 21645 21646 ar   
 21650 21645 21652 1    
 21651 21646 21647 ar   
 21652 21646 21653 1    
 21653 21647 21648 ar   
 21654 21648 21649 ar   
 21655 21648 21654 1    
 21656 21649 21655 1    
 21657 21650 21651 1    
 21658 21651 21658 1    
 21659 21651 21660 1    
 21660 21651 21659 1    
 21661 21661 21667 1    
 21662 21661 21676 1    
 21663 21662 21670 2    
 21664 21663 21670 am   BACKBONE|DICT|INTERRES
 21665 21663 21664 1    
 21666 21663 21677 1    
 21667 21664 21669 ar   
 21668 21664 21665 ar   
 21669 21665 21672 1    
 21670 21665 21666 ar   
 21671 21666 21673 1    
 21672 21666 21667 ar   
 21673 21667 21668 ar   
 21674 21668 21674 1    
 21675 21668 21669 ar   
 21676 21669 21675 1    
 21677 21670 21671 1    
 21678 21671 21678 1    
 21679 21671 21680 1    
 21680 21671 21679 1    
 21681 21681 21696 1    
 21682 21681 21687 1    
 21683 21682 21690 2    
 21684 21683 21697 1    
 21685 21683 21690 am   BACKBONE|DICT|INTERRES
 21686 21683 21684 1    
 21687 21684 21685 ar   
 21688 21684 21689 ar   
 21689 21685 21692 1    
 21690 21685 21686 ar   
 21691 21686 21687 ar   
 21692 21686 21693 1    
 21693 21687 21688 ar   
 21694 21688 21689 ar   
 21695 21688 21694 1    
 21696 21689 21695 1    
 21697 21690 21691 1    
 21698 21691 21699 1    
 21699 21691 21698 1    
 21700 21691 21700 1    
 21701 21701 21716 1    
 21702 21701 21707 1    
 21703 21702 21710 2    
 21704 21703 21704 1    
 21705 21703 21717 1    
 21706 21703 21710 am   BACKBONE|DICT|INTERRES
 21707 21704 21705 ar   
 21708 21704 21709 ar   
 21709 21705 21706 ar   
 21710 21705 21712 1    
 21711 21706 21713 1    
 21712 21706 21707 ar   
 21713 21707 21708 ar   
 21714 21708 21714 1    
 21715 21708 21709 ar   
 21716 21709 21715 1    
 21717 21710 21711 1    
 21718 21711 21719 1    
 21719 21711 21718 1    
 21720 21711 21720 1    
 21721 21721 21736 1    
 21722 21721 21727 1    
 21723 21722 21730 2    
 21724 21723 21724 1    
 21725 21723 21737 1    
 21726 21723 21730 am   BACKBONE|DICT|INTERRES
 21727 21724 21729 ar   
 21728 21724 21725 ar   
 21729 21725 21726 ar   
 21730 21725 21732 1    
 21731 21726 21727 ar   
 21732 21726 21733 1    
 21733 21727 21728 ar   
 21734 21728 21729 ar   
 21735 21728 21734 1    
 21736 21729 21735 1    
 21737 21730 21731 1    
 21738 21731 21738 1    
 21739 21731 21740 1    
 21740 21731 21739 1    
 21741 21741 21747 1    
 21742 21741 21756 1    
 21743 21742 21750 2    
 21744 21743 21750 am   BACKBONE|DICT|INTERRES
 21745 21743 21744 1    
 21746 21743 21757 1    
 21747 21744 21749 ar   
 21748 21744 21745 ar   
 21749 21745 21752 1    
 21750 21745 21746 ar   
 21751 21746 21753 1    
 21752 21746 21747 ar   
 21753 21747 21748 ar   
 21754 21748 21754 1    
 21755 21748 21749 ar   
 21756 21749 21755 1    
 21757 21750 21751 1    
 21758 21751 21758 1    
 21759 21751 21760 1    
 21760 21751 21759 1    
 21761 21761 21776 1    
 21762 21761 21767 1    
 21763 21762 21770 2    
 21764 21763 21777 1    
 21765 21763 21770 am   BACKBONE|DICT|INTERRES
 21766 21763 21764 1    
 21767 21764 21765 ar   
 21768 21764 21769 ar   
 21769 21765 21772 1    
 21770 21765 21766 ar   
 21771 21766 21767 ar   
 21772 21766 21773 1    
 21773 21767 21768 ar   
 21774 21768 21769 ar   
 21775 21768 21774 1    
 21776 21769 21775 1    
 21777 21770 21771 1    
 21778 21771 21779 1    
 21779 21771 21778 1    
 21780 21771 21780 1    
 21781 21781 21796 1    
 21782 21781 21787 1    
 21783 21782 21790 2    
 21784 21783 21784 1    
 21785 21783 21797 1    
 21786 21783 21790 am   BACKBONE|DICT|INTERRES
 21787 21784 21785 ar   
 21788 21784 21789 ar   
 21789 21785 21786 ar   
 21790 21785 21792 1    
 21791 21786 21793 1    
 21792 21786 21787 ar   
 21793 21787 21788 ar   
 21794 21788 21794 1    
 21795 21788 21789 ar   
 21796 21789 21795 1    
 21797 21790 21791 1    
 21798 21791 21799 1    
 21799 21791 21798 1    
 21800 21791 21800 1    
 21801 21801 21816 1    
 21802 21801 21807 1    
 21803 21802 21810 2    
 21804 21803 21804 1    
 21805 21803 21817 1    
 21806 21803 21810 am   BACKBONE|DICT|INTERRES
 21807 21804 21809 ar   
 21808 21804 21805 ar   
 21809 21805 21806 ar   
 21810 21805 21812 1    
 21811 21806 21807 ar   
 21812 21806 21813 1    
 21813 21807 21808 ar   
 21814 21808 21809 ar   
 21815 21808 21814 1    
 21816 21809 21815 1    
 21817 21810 21811 1    
 21818 21811 21818 1    
 21819 21811 21820 1    
 21820 21811 21819 1    
 21821 21821 21827 1    
 21822 21821 21836 1    
 21823 21822 21830 2    
 21824 21823 21830 am   BACKBONE|DICT|INTERRES
 21825 21823 21824 1    
 21826 21823 21837 1    
 21827 21824 21829 ar   
 21828 21824 21825 ar   
 21829 21825 21832 1    
 21830 21825 21826 ar   
 21831 21826 21833 1    
 21832 21826 21827 ar   
 21833 21827 21828 ar   
 21834 21828 21834 1    
 21835 21828 21829 ar   
 21836 21829 21835 1    
 21837 21830 21831 1    
 21838 21831 21838 1    
 21839 21831 21840 1    
 21840 21831 21839 1    
 21841 21841 21856 1    
 21842 21841 21847 1    
 21843 21842 21850 2    
 21844 21843 21857 1    
 21845 21843 21850 am   BACKBONE|DICT|INTERRES
 21846 21843 21844 1    
 21847 21844 21845 ar   
 21848 21844 21849 ar   
 21849 21845 21852 1    
 21850 21845 21846 ar   
 21851 21846 21847 ar   
 21852 21846 21853 1    
 21853 21847 21848 ar   
 21854 21848 21849 ar   
 21855 21848 21854 1    
 21856 21849 21855 1    
 21857 21850 21851 1    
 21858 21851 21859 1    
 21859 21851 21858 1    
 21860 21851 21860 1    
 21861 21861 21876 1    
 21862 21861 21867 1    
 21863 21862 21870 2    
 21864 21863 21864 1    
 21865 21863 21877 1    
 21866 21863 21870 am   BACKBONE|DICT|INTERRES
 21867 21864 21865 ar   
 21868 21864 21869 ar   
 21869 21865 21866 ar   
 21870 21865 21872 1    
 21871 21866 21873 1    
 21872 21866 21867 ar   
 21873 21867 21868 ar   
 21874 21868 21874 1    
 21875 21868 21869 ar   
 21876 21869 21875 1    
 21877 21870 21871 1    
 21878 21871 21879 1    
 21879 21871 21878 1    
 21880 21871 21880 1    
 21881 21881 21896 1    
 21882 21881 21887 1    
 21883 21882 21890 2    
 21884 21883 21884 1    
 21885 21883 21897 1    
 21886 21883 21890 am   BACKBONE|DICT|INTERRES
 21887 21884 21889 ar   
 21888 21884 21885 ar   
 21889 21885 21886 ar   
 21890 21885 21892 1    
 21891 21886 21887 ar   
 21892 21886 21893 1    
 21893 21887 21888 ar   
 21894 21888 21889 ar   
 21895 21888 21894 1    
 21896 21889 21895 1    
 21897 21890 21891 1    
 21898 21891 21898 1    
 21899 21891 21900 1    
 21900 21891 21899 1    
 21901 21901 21907 1    
 21902 21901 21916 1    
 21903 21902 21910 2    
 21904 21903 21910 am   BACKBONE|DICT|INTERRES
 21905 21903 21904 1    
 21906 21903 21917 1    
 21907 21904 21909 ar   
 21908 21904 21905 ar   
 21909 21905 21912 1    
 21910 21905 21906 ar   
 21911 21906 21913 1    
 21912 21906 21907 ar   
 21913 21907 21908 ar   
 21914 21908 21914 1    
 21915 21908 21909 ar   
 21916 21909 21915 1    
 21917 21910 21911 1    
 21918 21911 21918 1    
 21919 21911 21920 1    
 21920 21911 21919 1    
 21921 21921 21936 1    
 21922 21921 21927 1    
 21923 21922 21930 2    
 21924 21923 21937 1    
 21925 21923 21930 am   BACKBONE|DICT|INTERRES
 21926 21923 21924 1    
 21927 21924 21925 ar   
 21928 21924 21929 ar   
 21929 21925 21932 1    
 21930 21925 21926 ar   
 21931 21926 21927 ar   
 21932 21926 21933 1    
 21933 21927 21928 ar   
 21934 21928 21929 ar   
 21935 21928 21934 1    
 21936 21929 21935 1    
 21937 21930 21931 1    
 21938 21931 21939 1    
 21939 21931 21938 1    
 21940 21931 21940 1    
 21941 21941 21956 1    
 21942 21941 21947 1    
 21943 21942 21950 2    
 21944 21943 21944 1    
 21945 21943 21957 1    
 21946 21943 21950 am   BACKBONE|DICT|INTERRES
 21947 21944 21945 ar   
 21948 21944 21949 ar   
 21949 21945 21946 ar   
 21950 21945 21952 1    
 21951 21946 21953 1    
 21952 21946 21947 ar   
 21953 21947 21948 ar   
 21954 21948 21954 1    
 21955 21948 21949 ar   
 21956 21949 21955 1    
 21957 21950 21951 1    
 21958 21951 21959 1    
 21959 21951 21958 1    
 21960 21951 21960 1    
 21961 21961 21976 1    
 21962 21961 21967 1    
 21963 21962 21970 2    
 21964 21963 21964 1    
 21965 21963 21977 1    
 21966 21963 21970 am   BACKBONE|DICT|INTERRES
 21967 21964 21969 ar   
 21968 21964 21965 ar   
 21969 21965 21966 ar   
 21970 21965 21972 1    
 21971 21966 21967 ar   
 21972 21966 21973 1    
 21973 21967 21968 ar   
 21974 21968 21969 ar   
 21975 21968 21974 1    
 21976 21969 21975 1    
 21977 21970 21971 1    
 21978 21971 21978 1    
 21979 21971 21980 1    
 21980 21971 21979 1    
 21981 21981 21987 1    
 21982 21981 21996 1    
 21983 21982 21990 2    
 21984 21983 21990 am   BACKBONE|DICT|INTERRES
 21985 21983 21984 1    
 21986 21983 21997 1    
 21987 21984 21989 ar   
 21988 21984 21985 ar   
 21989 21985 21992 1    
 21990 21985 21986 ar   
 21991 21986 21993 1    
 21992 21986 21987 ar   
 21993 21987 21988 ar   
 21994 21988 21994 1    
 21995 21988 21989 ar   
 21996 21989 21995 1    
 21997 21990 21991 1    
 21998 21991 21998 1    
 21999 21991 22000 1    
 22000 21991 21999 1    
 22001 22001 22016 1    
 22002 22001 22007 1    
 22003 22002 22010 2    
 22004 22003 22017 1    
 22005 22003 22010 am   BACKBONE|DICT|INTERRES
 22006 22003 22004 1    
 22007 22004 22005 ar   
 22008 22004 22009 ar   
 22009 22005 22012 1    
 22010 22005 22006 ar   
 22011 22006 22007 ar   
 22012 22006 22013 1    
 22013 22007 22008 ar   
 22014 22008 22009 ar   
 22015 22008 22014 1    
 22016 22009 22015 1    
 22017 22010 22011 1    
 22018 22011 22019 1    
 22019 22011 22018 1    
 22020 22011 22020 1    
 22021 22021 22036 1    
 22022 22021 22027 1    
 22023 22022 22030 2    
 22024 22023 22024 1    
 22025 22023 22037 1    
 22026 22023 22030 am   BACKBONE|DICT|INTERRES
 22027 22024 22025 ar   
 22028 22024 22029 ar   
 22029 22025 22026 ar   
 22030 22025 22032 1    
 22031 22026 22033 1    
 22032 22026 22027 ar   
 22033 22027 22028 ar   
 22034 22028 22034 1    
 22035 22028 22029 ar   
 22036 22029 22035 1    
 22037 22030 22031 1    
 22038 22031 22039 1    
 22039 22031 22038 1    
 22040 22031 22040 1    
 22041 22041 22056 1    
 22042 22041 22047 1    
 22043 22042 22050 2    
 22044 22043 22044 1    
 22045 22043 22057 1    
 22046 22043 22050 am   BACKBONE|DICT|INTERRES
 22047 22044 22049 ar   
 22048 22044 22045 ar   
 22049 22045 22046 ar   
 22050 22045 22052 1    
 22051 22046 22047 ar   
 22052 22046 22053 1    
 22053 22047 22048 ar   
 22054 22048 22049 ar   
 22055 22048 22054 1    
 22056 22049 22055 1    
 22057 22050 22051 1    
 22058 22051 22058 1    
 22059 22051 22060 1    
 22060 22051 22059 1    
 22061 22061 22067 1    
 22062 22061 22076 1    
 22063 22062 22070 2    
 22064 22063 22070 am   BACKBONE|DICT|INTERRES
 22065 22063 22064 1    
 22066 22063 22077 1    
 22067 22064 22069 ar   
 22068 22064 22065 ar   
 22069 22065 22072 1    
 22070 22065 22066 ar   
 22071 22066 22073 1    
 22072 22066 22067 ar   
 22073 22067 22068 ar   
 22074 22068 22074 1    
 22075 22068 22069 ar   
 22076 22069 22075 1    
 22077 22070 22071 1    
 22078 22071 22078 1    
 22079 22071 22080 1    
 22080 22071 22079 1    
 22081 22081 22096 1    
 22082 22081 22087 1    
 22083 22082 22090 2    
 22084 22083 22097 1    
 22085 22083 22090 am   BACKBONE|DICT|INTERRES
 22086 22083 22084 1    
 22087 22084 22085 ar   
 22088 22084 22089 ar   
 22089 22085 22092 1    
 22090 22085 22086 ar   
 22091 22086 22087 ar   
 22092 22086 22093 1    
 22093 22087 22088 ar   
 22094 22088 22089 ar   
 22095 22088 22094 1    
 22096 22089 22095 1    
 22097 22090 22091 1    
 22098 22091 22099 1    
 22099 22091 22098 1    
 22100 22091 22100 1    
 22101 22101 22116 1    
 22102 22101 22107 1    
 22103 22102 22110 2    
 22104 22103 22104 1    
 22105 22103 22117 1    
 22106 22103 22110 am   BACKBONE|DICT|INTERRES
 22107 22104 22105 ar   
 22108 22104 22109 ar   
 22109 22105 22106 ar   
 22110 22105 22112 1    
 22111 22106 22113 1    
 22112 22106 22107 ar   
 22113 22107 22108 ar   
 22114 22108 22114 1    
 22115 22108 22109 ar   
 22116 22109 22115 1    
 22117 22110 22111 1    
 22118 22111 22119 1    
 22119 22111 22118 1    
 22120 22111 22120 1    
 22121 22121 22136 1    
 22122 22121 22127 1    
 22123 22122 22130 2    
 22124 22123 22124 1    
 22125 22123 22137 1    
 22126 22123 22130 am   BACKBONE|DICT|INTERRES
 22127 22124 22129 ar   
 22128 22124 22125 ar   
 22129 22125 22126 ar   
 22130 22125 22132 1    
 22131 22126 22127 ar   
 22132 22126 22133 1    
 22133 22127 22128 ar   
 22134 22128 22129 ar   
 22135 22128 22134 1    
 22136 22129 22135 1    
 22137 22130 22131 1    
 22138 22131 22138 1    
 22139 22131 22140 1    
 22140 22131 22139 1    
 22141 22141 22147 1    
 22142 22141 22156 1    
 22143 22142 22150 2    
 22144 22143 22150 am   BACKBONE|DICT|INTERRES
 22145 22143 22144 1    
 22146 22143 22157 1    
 22147 22144 22149 ar   
 22148 22144 22145 ar   
 22149 22145 22152 1    
 22150 22145 22146 ar   
 22151 22146 22153 1    
 22152 22146 22147 ar   
 22153 22147 22148 ar   
 22154 22148 22154 1    
 22155 22148 22149 ar   
 22156 22149 22155 1    
 22157 22150 22151 1    
 22158 22151 22158 1    
 22159 22151 22160 1    
 22160 22151 22159 1    
 22161 22161 22176 1    
 22162 22161 22167 1    
 22163 22162 22170 2    
 22164 22163 22177 1    
 22165 22163 22170 am   BACKBONE|DICT|INTERRES
 22166 22163 22164 1    
 22167 22164 22165 ar   
 22168 22164 22169 ar   
 22169 22165 22172 1    
 22170 22165 22166 ar   
 22171 22166 22167 ar   
 22172 22166 22173 1    
 22173 22167 22168 ar   
 22174 22168 22169 ar   
 22175 22168 22174 1    
 22176 22169 22175 1    
 22177 22170 22171 1    
 22178 22171 22179 1    
 22179 22171 22178 1    
 22180 22171 22180 1    
 22181 22181 22196 1    
 22182 22181 22187 1    
 22183 22182 22190 2    
 22184 22183 22184 1    
 22185 22183 22197 1    
 22186 22183 22190 am   BACKBONE|DICT|INTERRES
 22187 22184 22185 ar   
 22188 22184 22189 ar   
 22189 22185 22186 ar   
 22190 22185 22192 1    
 22191 22186 22193 1    
 22192 22186 22187 ar   
 22193 22187 22188 ar   
 22194 22188 22194 1    
 22195 22188 22189 ar   
 22196 22189 22195 1    
 22197 22190 22191 1    
 22198 22191 22199 1    
 22199 22191 22198 1    
 22200 22191 22200 1    
 22201 22201 22216 1    
 22202 22201 22207 1    
 22203 22202 22210 2    
 22204 22203 22204 1    
 22205 22203 22217 1    
 22206 22203 22210 am   BACKBONE|DICT|INTERRES
 22207 22204 22209 ar   
 22208 22204 22205 ar   
 22209 22205 22206 ar   
 22210 22205 22212 1    
 22211 22206 22207 ar   
 22212 22206 22213 1    
 22213 22207 22208 ar   
 22214 22208 22209 ar   
 22215 22208 22214 1    
 22216 22209 22215 1    
 22217 22210 22211 1    
 22218 22211 22218 1    
 22219 22211 22220 1    
 22220 22211 22219 1    
 22221 22221 22227 1    
 22222 22221 22236 1    
 22223 22222 22230 2    
 22224 22223 22230 am   BACKBONE|DICT|INTERRES
 22225 22223 22224 1    
 22226 22223 22237 1    
 22227 22224 22229 ar   
 22228 22224 22225 ar   
 22229 22225 22232 1    
 22230 22225 22226 ar   
 22231 22226 22233 1    
 22232 22226 22227 ar   
 22233 22227 22228 ar   
 22234 22228 22234 1    
 22235 22228 22229 ar   
 22236 22229 22235 1    
 22237 22230 22231 1    
 22238 22231 22238 1    
 22239 22231 22240 1    
 22240 22231 22239 1    
 22241 22241 22256 1    
 22242 22241 22247 1    
 22243 22242 22250 2    
 22244 22243 22257 1    
 22245 22243 22250 am   BACKBONE|DICT|INTERRES
 22246 22243 22244 1    
 22247 22244 22245 ar   
 22248 22244 22249 ar   
 22249 22245 22252 1    
 22250 22245 22246 ar   
 22251 22246 22247 ar   
 22252 22246 22253 1    
 22253 22247 22248 ar   
 22254 22248 22249 ar   
 22255 22248 22254 1    
 22256 22249 22255 1    
 22257 22250 22251 1    
 22258 22251 22259 1    
 22259 22251 22258 1    
 22260 22251 22260 1    
 22261 22261 22276 1    
 22262 22261 22267 1    
 22263 22262 22270 2    
 22264 22263 22264 1    
 22265 22263 22277 1    
 22266 22263 22270 am   BACKBONE|DICT|INTERRES
 22267 22264 22265 ar   
 22268 22264 22269 ar   
 22269 22265 22266 ar   
 22270 22265 22272 1    
 22271 22266 22273 1    
 22272 22266 22267 ar   
 22273 22267 22268 ar   
 22274 22268 22274 1    
 22275 22268 22269 ar   
 22276 22269 22275 1    
 22277 22270 22271 1    
 22278 22271 22279 1    
 22279 22271 22278 1    
 22280 22271 22280 1    
 22281 22281 22296 1    
 22282 22281 22287 1    
 22283 22282 22290 2    
 22284 22283 22284 1    
 22285 22283 22297 1    
 22286 22283 22290 am   BACKBONE|DICT|INTERRES
 22287 22284 22289 ar   
 22288 22284 22285 ar   
 22289 22285 22286 ar   
 22290 22285 22292 1    
 22291 22286 22287 ar   
 22292 22286 22293 1    
 22293 22287 22288 ar   
 22294 22288 22289 ar   
 22295 22288 22294 1    
 22296 22289 22295 1    
 22297 22290 22291 1    
 22298 22291 22298 1    
 22299 22291 22300 1    
 22300 22291 22299 1    
 22301 22301 22307 1    
 22302 22301 22316 1    
 22303 22302 22310 2    
 22304 22303 22310 am   BACKBONE|DICT|INTERRES
 22305 22303 22304 1    
 22306 22303 22317 1    
 22307 22304 22309 ar   
 22308 22304 22305 ar   
 22309 22305 22312 1    
 22310 22305 22306 ar   
 22311 22306 22313 1    
 22312 22306 22307 ar   
 22313 22307 22308 ar   
 22314 22308 22314 1    
 22315 22308 22309 ar   
 22316 22309 22315 1    
 22317 22310 22311 1    
 22318 22311 22318 1    
 22319 22311 22320 1    
 22320 22311 22319 1    
 22321 22321 22336 1    
 22322 22321 22327 1    
 22323 22322 22330 2    
 22324 22323 22337 1    
 22325 22323 22330 am   BACKBONE|DICT|INTERRES
 22326 22323 22324 1    
 22327 22324 22325 ar   
 22328 22324 22329 ar   
 22329 22325 22332 1    
 22330 22325 22326 ar   
 22331 22326 22327 ar   
 22332 22326 22333 1    
 22333 22327 22328 ar   
 22334 22328 22329 ar   
 22335 22328 22334 1    
 22336 22329 22335 1    
 22337 22330 22331 1    
 22338 22331 22339 1    
 22339 22331 22338 1    
 22340 22331 22340 1    
 22341 22341 22356 1    
 22342 22341 22347 1    
 22343 22342 22350 2    
 22344 22343 22344 1    
 22345 22343 22357 1    
 22346 22343 22350 am   BACKBONE|DICT|INTERRES
 22347 22344 22345 ar   
 22348 22344 22349 ar   
 22349 22345 22346 ar   
 22350 22345 22352 1    
 22351 22346 22353 1    
 22352 22346 22347 ar   
 22353 22347 22348 ar   
 22354 22348 22354 1    
 22355 22348 22349 ar   
 22356 22349 22355 1    
 22357 22350 22351 1    
 22358 22351 22359 1    
 22359 22351 22358 1    
 22360 22351 22360 1    
 22361 22361 22376 1    
 22362 22361 22367 1    
 22363 22362 22370 2    
 22364 22363 22364 1    
 22365 22363 22377 1    
 22366 22363 22370 am   BACKBONE|DICT|INTERRES
 22367 22364 22369 ar   
 22368 22364 22365 ar   
 22369 22365 22366 ar   
 22370 22365 22372 1    
 22371 22366 22367 ar   
 22372 22366 22373 1    
 22373 22367 22368 ar   
 22374 22368 22369 ar   
 22375 22368 22374 1    
 22376 22369 22375 1    
 22377 22370 22371 1    
 22378 22371 22378 1    
 22379 22371 22380 1    
 22380 22371 22379 1    
 22381 22381 22387 1    
 22382 22381 22396 1    
 22383 22382 22390 2    
 22384 22383 22390 am   BACKBONE|DICT|INTERRES
 22385 22383 22384 1    
 22386 22383 22397 1    
 22387 22384 22389 ar   
 22388 22384 22385 ar   
 22389 22385 22392 1    
 22390 22385 22386 ar   
 22391 22386 22393 1    
 22392 22386 22387 ar   
 22393 22387 22388 ar   
 22394 22388 22394 1    
 22395 22388 22389 ar   
 22396 22389 22395 1    
 22397 22390 22391 1    
 22398 22391 22398 1    
 22399 22391 22400 1    
 22400 22391 22399 1    
 22401 22401 22416 1    
 22402 22401 22407 1    
 22403 22402 22410 2    
 22404 22403 22417 1    
 22405 22403 22410 am   BACKBONE|DICT|INTERRES
 22406 22403 22404 1    
 22407 22404 22405 ar   
 22408 22404 22409 ar   
 22409 22405 22412 1    
 22410 22405 22406 ar   
 22411 22406 22407 ar   
 22412 22406 22413 1    
 22413 22407 22408 ar   
 22414 22408 22409 ar   
 22415 22408 22414 1    
 22416 22409 22415 1    
 22417 22410 22411 1    
 22418 22411 22419 1    
 22419 22411 22418 1    
 22420 22411 22420 1    
 22421 22421 22436 1    
 22422 22421 22427 1    
 22423 22422 22430 2    
 22424 22423 22424 1    
 22425 22423 22437 1    
 22426 22423 22430 am   BACKBONE|DICT|INTERRES
 22427 22424 22425 ar   
 22428 22424 22429 ar   
 22429 22425 22426 ar   
 22430 22425 22432 1    
 22431 22426 22433 1    
 22432 22426 22427 ar   
 22433 22427 22428 ar   
 22434 22428 22434 1    
 22435 22428 22429 ar   
 22436 22429 22435 1    
 22437 22430 22431 1    
 22438 22431 22439 1    
 22439 22431 22438 1    
 22440 22431 22440 1    
 22441 22441 22456 1    
 22442 22441 22447 1    
 22443 22442 22450 2    
 22444 22443 22444 1    
 22445 22443 22457 1    
 22446 22443 22450 am   BACKBONE|DICT|INTERRES
 22447 22444 22449 ar   
 22448 22444 22445 ar   
 22449 22445 22446 ar   
 22450 22445 22452 1    
 22451 22446 22447 ar   
 22452 22446 22453 1    
 22453 22447 22448 ar   
 22454 22448 22449 ar   
 22455 22448 22454 1    
 22456 22449 22455 1    
 22457 22450 22451 1    
 22458 22451 22458 1    
 22459 22451 22460 1    
 22460 22451 22459 1    
 22461 22461 22467 1    
 22462 22461 22476 1    
 22463 22462 22470 2    
 22464 22463 22470 am   BACKBONE|DICT|INTERRES
 22465 22463 22464 1    
 22466 22463 22477 1    
 22467 22464 22469 ar   
 22468 22464 22465 ar   
 22469 22465 22472 1    
 22470 22465 22466 ar   
 22471 22466 22473 1    
 22472 22466 22467 ar   
 22473 22467 22468 ar   
 22474 22468 22474 1    
 22475 22468 22469 ar   
 22476 22469 22475 1    
 22477 22470 22471 1    
 22478 22471 22478 1    
 22479 22471 22480 1    
 22480 22471 22479 1    
 22481 22481 22496 1    
 22482 22481 22487 1    
 22483 22482 22490 2    
 22484 22483 22497 1    
 22485 22483 22490 am   BACKBONE|DICT|INTERRES
 22486 22483 22484 1    
 22487 22484 22485 ar   
 22488 22484 22489 ar   
 22489 22485 22492 1    
 22490 22485 22486 ar   
 22491 22486 22487 ar   
 22492 22486 22493 1    
 22493 22487 22488 ar   
 22494 22488 22489 ar   
 22495 22488 22494 1    
 22496 22489 22495 1    
 22497 22490 22491 1    
 22498 22491 22499 1    
 22499 22491 22498 1    
 22500 22491 22500 1    
 22501 22501 22516 1    
 22502 22501 22507 1    
 22503 22502 22510 2    
 22504 22503 22504 1    
 22505 22503 22517 1    
 22506 22503 22510 am   BACKBONE|DICT|INTERRES
 22507 22504 22505 ar   
 22508 22504 22509 ar   
 22509 22505 22506 ar   
 22510 22505 22512 1    
 22511 22506 22513 1    
 22512 22506 22507 ar   
 22513 22507 22508 ar   
 22514 22508 22514 1    
 22515 22508 22509 ar   
 22516 22509 22515 1    
 22517 22510 22511 1    
 22518 22511 22519 1    
 22519 22511 22518 1    
 22520 22511 22520 1    
 22521 22521 22536 1    
 22522 22521 22527 1    
 22523 22522 22530 2    
 22524 22523 22524 1    
 22525 22523 22537 1    
 22526 22523 22530 am   BACKBONE|DICT|INTERRES
 22527 22524 22529 ar   
 22528 22524 22525 ar   
 22529 22525 22526 ar   
 22530 22525 22532 1    
 22531 22526 22527 ar   
 22532 22526 22533 1    
 22533 22527 22528 ar   
 22534 22528 22529 ar   
 22535 22528 22534 1    
 22536 22529 22535 1    
 22537 22530 22531 1    
 22538 22531 22538 1    
 22539 22531 22540 1    
 22540 22531 22539 1    
 22541 22541 22547 1    
 22542 22541 22556 1    
 22543 22542 22550 2    
 22544 22543 22550 am   BACKBONE|DICT|INTERRES
 22545 22543 22544 1    
 22546 22543 22557 1    
 22547 22544 22549 ar   
 22548 22544 22545 ar   
 22549 22545 22552 1    
 22550 22545 22546 ar   
 22551 22546 22553 1    
 22552 22546 22547 ar   
 22553 22547 22548 ar   
 22554 22548 22554 1    
 22555 22548 22549 ar   
 22556 22549 22555 1    
 22557 22550 22551 1    
 22558 22551 22558 1    
 22559 22551 22560 1    
 22560 22551 22559 1    
 22561 22561 22576 1    
 22562 22561 22567 1    
 22563 22562 22570 2    
 22564 22563 22577 1    
 22565 22563 22570 am   BACKBONE|DICT|INTERRES
 22566 22563 22564 1    
 22567 22564 22565 ar   
 22568 22564 22569 ar   
 22569 22565 22572 1    
 22570 22565 22566 ar   
 22571 22566 22567 ar   
 22572 22566 22573 1    
 22573 22567 22568 ar   
 22574 22568 22569 ar   
 22575 22568 22574 1    
 22576 22569 22575 1    
 22577 22570 22571 1    
 22578 22571 22579 1    
 22579 22571 22578 1    
 22580 22571 22580 1    
 22581 22581 22596 1    
 22582 22581 22587 1    
 22583 22582 22590 2    
 22584 22583 22584 1    
 22585 22583 22597 1    
 22586 22583 22590 am   BACKBONE|DICT|INTERRES
 22587 22584 22585 ar   
 22588 22584 22589 ar   
 22589 22585 22586 ar   
 22590 22585 22592 1    
 22591 22586 22593 1    
 22592 22586 22587 ar   
 22593 22587 22588 ar   
 22594 22588 22594 1    
 22595 22588 22589 ar   
 22596 22589 22595 1    
 22597 22590 22591 1    
 22598 22591 22599 1    
 22599 22591 22598 1    
 22600 22591 22600 1    
 22601 22601 22616 1    
 22602 22601 22607 1    
 22603 22602 22610 2    
 22604 22603 22604 1    
 22605 22603 22617 1    
 22606 22603 22610 am   BACKBONE|DICT|INTERRES
 22607 22604 22609 ar   
 22608 22604 22605 ar   
 22609 22605 22606 ar   
 22610 22605 22612 1    
 22611 22606 22607 ar   
 22612 22606 22613 1    
 22613 22607 22608 ar   
 22614 22608 22609 ar   
 22615 22608 22614 1    
 22616 22609 22615 1    
 22617 22610 22611 1    
 22618 22611 22618 1    
 22619 22611 22620 1    
 22620 22611 22619 1    
 22621 22621 22627 1    
 22622 22621 22636 1    
 22623 22622 22630 2    
 22624 22623 22630 am   BACKBONE|DICT|INTERRES
 22625 22623 22624 1    
 22626 22623 22637 1    
 22627 22624 22629 ar   
 22628 22624 22625 ar   
 22629 22625 22632 1    
 22630 22625 22626 ar   
 22631 22626 22633 1    
 22632 22626 22627 ar   
 22633 22627 22628 ar   
 22634 22628 22634 1    
 22635 22628 22629 ar   
 22636 22629 22635 1    
 22637 22630 22631 1    
 22638 22631 22638 1    
 22639 22631 22640 1    
 22640 22631 22639 1    
 22641 22641 22656 1    
 22642 22641 22647 1    
 22643 22642 22650 2    
 22644 22643 22657 1    
 22645 22643 22650 am   BACKBONE|DICT|INTERRES
 22646 22643 22644 1    
 22647 22644 22645 ar   
 22648 22644 22649 ar   
 22649 22645 22652 1    
 22650 22645 22646 ar   
 22651 22646 22647 ar   
 22652 22646 22653 1    
 22653 22647 22648 ar   
 22654 22648 22649 ar   
 22655 22648 22654 1    
 22656 22649 22655 1    
 22657 22650 22651 1    
 22658 22651 22659 1    
 22659 22651 22658 1    
 22660 22651 22660 1    
 22661 22661 22676 1    
 22662 22661 22667 1    
 22663 22662 22670 2    
 22664 22663 22664 1    
 22665 22663 22677 1    
 22666 22663 22670 am   BACKBONE|DICT|INTERRES
 22667 22664 22665 ar   
 22668 22664 22669 ar   
 22669 22665 22666 ar   
 22670 22665 22672 1    
 22671 22666 22673 1    
 22672 22666 22667 ar   
 22673 22667 22668 ar   
 22674 22668 22674 1    
 22675 22668 22669 ar   
 22676 22669 22675 1    
 22677 22670 22671 1    
 22678 22671 22679 1    
 22679 22671 22678 1    
 22680 22671 22680 1    
 22681 22681 22696 1    
 22682 22681 22687 1    
 22683 22682 22690 2    
 22684 22683 22684 1    
 22685 22683 22697 1    
 22686 22683 22690 am   BACKBONE|DICT|INTERRES
 22687 22684 22689 ar   
 22688 22684 22685 ar   
 22689 22685 22686 ar   
 22690 22685 22692 1    
 22691 22686 22687 ar   
 22692 22686 22693 1    
 22693 22687 22688 ar   
 22694 22688 22689 ar   
 22695 22688 22694 1    
 22696 22689 22695 1    
 22697 22690 22691 1    
 22698 22691 22698 1    
 22699 22691 22700 1    
 22700 22691 22699 1    
 22701 22701 22707 1    
 22702 22701 22716 1    
 22703 22702 22710 2    
 22704 22703 22710 am   BACKBONE|DICT|INTERRES
 22705 22703 22704 1    
 22706 22703 22717 1    
 22707 22704 22709 ar   
 22708 22704 22705 ar   
 22709 22705 22712 1    
 22710 22705 22706 ar   
 22711 22706 22713 1    
 22712 22706 22707 ar   
 22713 22707 22708 ar   
 22714 22708 22714 1    
 22715 22708 22709 ar   
 22716 22709 22715 1    
 22717 22710 22711 1    
 22718 22711 22718 1    
 22719 22711 22720 1    
 22720 22711 22719 1    
 22721 22721 22736 1    
 22722 22721 22727 1    
 22723 22722 22730 2    
 22724 22723 22737 1    
 22725 22723 22730 am   BACKBONE|DICT|INTERRES
 22726 22723 22724 1    
 22727 22724 22725 ar   
 22728 22724 22729 ar   
 22729 22725 22732 1    
 22730 22725 22726 ar   
 22731 22726 22727 ar   
 22732 22726 22733 1    
 22733 22727 22728 ar   
 22734 22728 22729 ar   
 22735 22728 22734 1    
 22736 22729 22735 1    
 22737 22730 22731 1    
 22738 22731 22739 1    
 22739 22731 22738 1    
 22740 22731 22740 1    
 22741 22741 22756 1    
 22742 22741 22747 1    
 22743 22742 22750 2    
 22744 22743 22744 1    
 22745 22743 22757 1    
 22746 22743 22750 am   BACKBONE|DICT|INTERRES
 22747 22744 22745 ar   
 22748 22744 22749 ar   
 22749 22745 22746 ar   
 22750 22745 22752 1    
 22751 22746 22753 1    
 22752 22746 22747 ar   
 22753 22747 22748 ar   
 22754 22748 22754 1    
 22755 22748 22749 ar   
 22756 22749 22755 1    
 22757 22750 22751 1    
 22758 22751 22759 1    
 22759 22751 22758 1    
 22760 22751 22760 1    
 22761 22761 22776 1    
 22762 22761 22767 1    
 22763 22762 22770 2    
 22764 22763 22764 1    
 22765 22763 22777 1    
 22766 22763 22770 am   BACKBONE|DICT|INTERRES
 22767 22764 22769 ar   
 22768 22764 22765 ar   
 22769 22765 22766 ar   
 22770 22765 22772 1    
 22771 22766 22767 ar   
 22772 22766 22773 1    
 22773 22767 22768 ar   
 22774 22768 22769 ar   
 22775 22768 22774 1    
 22776 22769 22775 1    
 22777 22770 22771 1    
 22778 22771 22778 1    
 22779 22771 22780 1    
 22780 22771 22779 1    
 22781 22781 22787 1    
 22782 22781 22796 1    
 22783 22782 22790 2    
 22784 22783 22790 am   BACKBONE|DICT|INTERRES
 22785 22783 22784 1    
 22786 22783 22797 1    
 22787 22784 22789 ar   
 22788 22784 22785 ar   
 22789 22785 22792 1    
 22790 22785 22786 ar   
 22791 22786 22793 1    
 22792 22786 22787 ar   
 22793 22787 22788 ar   
 22794 22788 22794 1    
 22795 22788 22789 ar   
 22796 22789 22795 1    
 22797 22790 22791 1    
 22798 22791 22798 1    
 22799 22791 22800 1    
 22800 22791 22799 1    
 22801 22801 22816 1    
 22802 22801 22807 1    
 22803 22802 22810 2    
 22804 22803 22817 1    
 22805 22803 22810 am   BACKBONE|DICT|INTERRES
 22806 22803 22804 1    
 22807 22804 22805 ar   
 22808 22804 22809 ar   
 22809 22805 22812 1    
 22810 22805 22806 ar   
 22811 22806 22807 ar   
 22812 22806 22813 1    
 22813 22807 22808 ar   
 22814 22808 22809 ar   
 22815 22808 22814 1    
 22816 22809 22815 1    
 22817 22810 22811 1    
 22818 22811 22819 1    
 22819 22811 22818 1    
 22820 22811 22820 1    
 22821 22821 22836 1    
 22822 22821 22827 1    
 22823 22822 22830 2    
 22824 22823 22824 1    
 22825 22823 22837 1    
 22826 22823 22830 am   BACKBONE|DICT|INTERRES
 22827 22824 22825 ar   
 22828 22824 22829 ar   
 22829 22825 22826 ar   
 22830 22825 22832 1    
 22831 22826 22833 1    
 22832 22826 22827 ar   
 22833 22827 22828 ar   
 22834 22828 22834 1    
 22835 22828 22829 ar   
 22836 22829 22835 1    
 22837 22830 22831 1    
 22838 22831 22839 1    
 22839 22831 22838 1    
 22840 22831 22840 1    
 22841 22841 22856 1    
 22842 22841 22847 1    
 22843 22842 22850 2    
 22844 22843 22844 1    
 22845 22843 22857 1    
 22846 22843 22850 am   BACKBONE|DICT|INTERRES
 22847 22844 22849 ar   
 22848 22844 22845 ar   
 22849 22845 22846 ar   
 22850 22845 22852 1    
 22851 22846 22847 ar   
 22852 22846 22853 1    
 22853 22847 22848 ar   
 22854 22848 22849 ar   
 22855 22848 22854 1    
 22856 22849 22855 1    
 22857 22850 22851 1    
 22858 22851 22858 1    
 22859 22851 22860 1    
 22860 22851 22859 1    
 22861 22861 22867 1    
 22862 22861 22876 1    
 22863 22862 22870 2    
 22864 22863 22870 am   BACKBONE|DICT|INTERRES
 22865 22863 22864 1    
 22866 22863 22877 1    
 22867 22864 22869 ar   
 22868 22864 22865 ar   
 22869 22865 22872 1    
 22870 22865 22866 ar   
 22871 22866 22873 1    
 22872 22866 22867 ar   
 22873 22867 22868 ar   
 22874 22868 22874 1    
 22875 22868 22869 ar   
 22876 22869 22875 1    
 22877 22870 22871 1    
 22878 22871 22878 1    
 22879 22871 22880 1    
 22880 22871 22879 1    
 22881 22881 22896 1    
 22882 22881 22887 1    
 22883 22882 22890 2    
 22884 22883 22897 1    
 22885 22883 22890 am   BACKBONE|DICT|INTERRES
 22886 22883 22884 1    
 22887 22884 22885 ar   
 22888 22884 22889 ar   
 22889 22885 22892 1    
 22890 22885 22886 ar   
 22891 22886 22887 ar   
 22892 22886 22893 1    
 22893 22887 22888 ar   
 22894 22888 22889 ar   
 22895 22888 22894 1    
 22896 22889 22895 1    
 22897 22890 22891 1    
 22898 22891 22899 1    
 22899 22891 22898 1    
 22900 22891 22900 1    
 22901 22901 22916 1    
 22902 22901 22907 1    
 22903 22902 22910 2    
 22904 22903 22904 1    
 22905 22903 22917 1    
 22906 22903 22910 am   BACKBONE|DICT|INTERRES
 22907 22904 22905 ar   
 22908 22904 22909 ar   
 22909 22905 22906 ar   
 22910 22905 22912 1    
 22911 22906 22913 1    
 22912 22906 22907 ar   
 22913 22907 22908 ar   
 22914 22908 22914 1    
 22915 22908 22909 ar   
 22916 22909 22915 1    
 22917 22910 22911 1    
 22918 22911 22919 1    
 22919 22911 22918 1    
 22920 22911 22920 1    
 22921 22921 22936 1    
 22922 22921 22927 1    
 22923 22922 22930 2    
 22924 22923 22924 1    
 22925 22923 22937 1    
 22926 22923 22930 am   BACKBONE|DICT|INTERRES
 22927 22924 22929 ar   
 22928 22924 22925 ar   
 22929 22925 22926 ar   
 22930 22925 22932 1    
 22931 22926 22927 ar   
 22932 22926 22933 1    
 22933 22927 22928 ar   
 22934 22928 22929 ar   
 22935 22928 22934 1    
 22936 22929 22935 1    
 22937 22930 22931 1    
 22938 22931 22938 1    
 22939 22931 22940 1    
 22940 22931 22939 1    
 22941 22941 22947 1    
 22942 22941 22956 1    
 22943 22942 22950 2    
 22944 22943 22950 am   BACKBONE|DICT|INTERRES
 22945 22943 22944 1    
 22946 22943 22957 1    
 22947 22944 22949 ar   
 22948 22944 22945 ar   
 22949 22945 22952 1    
 22950 22945 22946 ar   
 22951 22946 22953 1    
 22952 22946 22947 ar   
 22953 22947 22948 ar   
 22954 22948 22954 1    
 22955 22948 22949 ar   
 22956 22949 22955 1    
 22957 22950 22951 1    
 22958 22951 22958 1    
 22959 22951 22960 1    
 22960 22951 22959 1    
 22961 22961 22976 1    
 22962 22961 22967 1    
 22963 22962 22970 2    
 22964 22963 22977 1    
 22965 22963 22970 am   BACKBONE|DICT|INTERRES
 22966 22963 22964 1    
 22967 22964 22965 ar   
 22968 22964 22969 ar   
 22969 22965 22972 1    
 22970 22965 22966 ar   
 22971 22966 22967 ar   
 22972 22966 22973 1    
 22973 22967 22968 ar   
 22974 22968 22969 ar   
 22975 22968 22974 1    
 22976 22969 22975 1    
 22977 22970 22971 1    
 22978 22971 22979 1    
 22979 22971 22978 1    
 22980 22971 22980 1    
 22981 22981 22996 1    
 22982 22981 22987 1    
 22983 22982 22990 2    
 22984 22983 22984 1    
 22985 22983 22997 1    
 22986 22983 22990 am   BACKBONE|DICT|INTERRES
 22987 22984 22985 ar   
 22988 22984 22989 ar   
 22989 22985 22986 ar   
 22990 22985 22992 1    
 22991 22986 22993 1    
 22992 22986 22987 ar   
 22993 22987 22988 ar   
 22994 22988 22994 1    
 22995 22988 22989 ar   
 22996 22989 22995 1    
 22997 22990 22991 1    
 22998 22991 22999 1    
 22999 22991 22998 1    
 23000 22991 23000 1    
 23001 23001 23016 1    
 23002 23001 23007 1    
 23003 23002 23010 2    
 23004 23003 23004 1    
 23005 23003 23017 1    
 23006 23003 23010 am   BACKBONE|DICT|INTERRES
 23007 23004 23009 ar   
 23008 23004 23005 ar   
 23009 23005 23006 ar   
 23010 23005 23012 1    
 23011 23006 23007 ar   
 23012 23006 23013 1    
 23013 23007 23008 ar   
 23014 23008 23009 ar   
 23015 23008 23014 1    
 23016 23009 23015 1    
 23017 23010 23011 1    
 23018 23011 23018 1    
 23019 23011 23020 1    
 23020 23011 23019 1    
 23021 23021 23027 1    
 23022 23021 23036 1    
 23023 23022 23030 2    
 23024 23023 23030 am   BACKBONE|DICT|INTERRES
 23025 23023 23024 1    
 23026 23023 23037 1    
 23027 23024 23029 ar   
 23028 23024 23025 ar   
 23029 23025 23032 1    
 23030 23025 23026 ar   
 23031 23026 23033 1    
 23032 23026 23027 ar   
 23033 23027 23028 ar   
 23034 23028 23034 1    
 23035 23028 23029 ar   
 23036 23029 23035 1    
 23037 23030 23031 1    
 23038 23031 23038 1    
 23039 23031 23040 1    
 23040 23031 23039 1    
 23041 23041 23056 1    
 23042 23041 23047 1    
 23043 23042 23050 2    
 23044 23043 23057 1    
 23045 23043 23050 am   BACKBONE|DICT|INTERRES
 23046 23043 23044 1    
 23047 23044 23045 ar   
 23048 23044 23049 ar   
 23049 23045 23052 1    
 23050 23045 23046 ar   
 23051 23046 23047 ar   
 23052 23046 23053 1    
 23053 23047 23048 ar   
 23054 23048 23049 ar   
 23055 23048 23054 1    
 23056 23049 23055 1    
 23057 23050 23051 1    
 23058 23051 23059 1    
 23059 23051 23058 1    
 23060 23051 23060 1    
 23061 23061 23076 1    
 23062 23061 23067 1    
 23063 23062 23070 2    
 23064 23063 23064 1    
 23065 23063 23077 1    
 23066 23063 23070 am   BACKBONE|DICT|INTERRES
 23067 23064 23065 ar   
 23068 23064 23069 ar   
 23069 23065 23066 ar   
 23070 23065 23072 1    
 23071 23066 23073 1    
 23072 23066 23067 ar   
 23073 23067 23068 ar   
 23074 23068 23074 1    
 23075 23068 23069 ar   
 23076 23069 23075 1    
 23077 23070 23071 1    
 23078 23071 23079 1    
 23079 23071 23078 1    
 23080 23071 23080 1    
 23081 23081 23096 1    
 23082 23081 23087 1    
 23083 23082 23090 2    
 23084 23083 23084 1    
 23085 23083 23097 1    
 23086 23083 23090 am   BACKBONE|DICT|INTERRES
 23087 23084 23089 ar   
 23088 23084 23085 ar   
 23089 23085 23086 ar   
 23090 23085 23092 1    
 23091 23086 23087 ar   
 23092 23086 23093 1    
 23093 23087 23088 ar   
 23094 23088 23089 ar   
 23095 23088 23094 1    
 23096 23089 23095 1    
 23097 23090 23091 1    
 23098 23091 23098 1    
 23099 23091 23100 1    
 23100 23091 23099 1    
 23101 23101 23107 1    
 23102 23101 23116 1    
 23103 23102 23110 2    
 23104 23103 23110 am   BACKBONE|DICT|INTERRES
 23105 23103 23104 1    
 23106 23103 23117 1    
 23107 23104 23109 ar   
 23108 23104 23105 ar   
 23109 23105 23112 1    
 23110 23105 23106 ar   
 23111 23106 23113 1    
 23112 23106 23107 ar   
 23113 23107 23108 ar   
 23114 23108 23114 1    
 23115 23108 23109 ar   
 23116 23109 23115 1    
 23117 23110 23111 1    
 23118 23111 23118 1    
 23119 23111 23120 1    
 23120 23111 23119 1    
 23121 23121 23136 1    
 23122 23121 23127 1    
 23123 23122 23130 2    
 23124 23123 23137 1    
 23125 23123 23130 am   BACKBONE|DICT|INTERRES
 23126 23123 23124 1    
 23127 23124 23125 ar   
 23128 23124 23129 ar   
 23129 23125 23132 1    
 23130 23125 23126 ar   
 23131 23126 23127 ar   
 23132 23126 23133 1    
 23133 23127 23128 ar   
 23134 23128 23129 ar   
 23135 23128 23134 1    
 23136 23129 23135 1    
 23137 23130 23131 1    
 23138 23131 23139 1    
 23139 23131 23138 1    
 23140 23131 23140 1    
 23141 23141 23156 1    
 23142 23141 23147 1    
 23143 23142 23150 2    
 23144 23143 23144 1    
 23145 23143 23157 1    
 23146 23143 23150 am   BACKBONE|DICT|INTERRES
 23147 23144 23145 ar   
 23148 23144 23149 ar   
 23149 23145 23146 ar   
 23150 23145 23152 1    
 23151 23146 23153 1    
 23152 23146 23147 ar   
 23153 23147 23148 ar   
 23154 23148 23154 1    
 23155 23148 23149 ar   
 23156 23149 23155 1    
 23157 23150 23151 1    
 23158 23151 23159 1    
 23159 23151 23158 1    
 23160 23151 23160 1    
 23161 23161 23176 1    
 23162 23161 23167 1    
 23163 23162 23170 2    
 23164 23163 23164 1    
 23165 23163 23177 1    
 23166 23163 23170 am   BACKBONE|DICT|INTERRES
 23167 23164 23169 ar   
 23168 23164 23165 ar   
 23169 23165 23166 ar   
 23170 23165 23172 1    
 23171 23166 23167 ar   
 23172 23166 23173 1    
 23173 23167 23168 ar   
 23174 23168 23169 ar   
 23175 23168 23174 1    
 23176 23169 23175 1    
 23177 23170 23171 1    
 23178 23171 23178 1    
 23179 23171 23180 1    
 23180 23171 23179 1    
 23181 23181 23187 1    
 23182 23181 23196 1    
 23183 23182 23190 2    
 23184 23183 23190 am   BACKBONE|DICT|INTERRES
 23185 23183 23184 1    
 23186 23183 23197 1    
 23187 23184 23189 ar   
 23188 23184 23185 ar   
 23189 23185 23192 1    
 23190 23185 23186 ar   
 23191 23186 23193 1    
 23192 23186 23187 ar   
 23193 23187 23188 ar   
 23194 23188 23194 1    
 23195 23188 23189 ar   
 23196 23189 23195 1    
 23197 23190 23191 1    
 23198 23191 23198 1    
 23199 23191 23200 1    
 23200 23191 23199 1    
 23201 23201 23216 1    
 23202 23201 23207 1    
 23203 23202 23210 2    
 23204 23203 23217 1    
 23205 23203 23210 am   BACKBONE|DICT|INTERRES
 23206 23203 23204 1    
 23207 23204 23205 ar   
 23208 23204 23209 ar   
 23209 23205 23212 1    
 23210 23205 23206 ar   
 23211 23206 23207 ar   
 23212 23206 23213 1    
 23213 23207 23208 ar   
 23214 23208 23209 ar   
 23215 23208 23214 1    
 23216 23209 23215 1    
 23217 23210 23211 1    
 23218 23211 23219 1    
 23219 23211 23218 1    
 23220 23211 23220 1    
 23221 23221 23236 1    
 23222 23221 23227 1    
 23223 23222 23230 2    
 23224 23223 23224 1    
 23225 23223 23237 1    
 23226 23223 23230 am   BACKBONE|DICT|INTERRES
 23227 23224 23225 ar   
 23228 23224 23229 ar   
 23229 23225 23226 ar   
 23230 23225 23232 1    
 23231 23226 23233 1    
 23232 23226 23227 ar   
 23233 23227 23228 ar   
 23234 23228 23234 1    
 23235 23228 23229 ar   
 23236 23229 23235 1    
 23237 23230 23231 1    
 23238 23231 23239 1    
 23239 23231 23238 1    
 23240 23231 23240 1    
 23241 23241 23256 1    
 23242 23241 23247 1    
 23243 23242 23250 2    
 23244 23243 23244 1    
 23245 23243 23257 1    
 23246 23243 23250 am   BACKBONE|DICT|INTERRES
 23247 23244 23249 ar   
 23248 23244 23245 ar   
 23249 23245 23246 ar   
 23250 23245 23252 1    
 23251 23246 23247 ar   
 23252 23246 23253 1    
 23253 23247 23248 ar   
 23254 23248 23249 ar   
 23255 23248 23254 1    
 23256 23249 23255 1    
 23257 23250 23251 1    
 23258 23251 23258 1    
 23259 23251 23260 1    
 23260 23251 23259 1    
 23261 23261 23267 1    
 23262 23261 23276 1    
 23263 23262 23270 2    
 23264 23263 23270 am   BACKBONE|DICT|INTERRES
 23265 23263 23264 1    
 23266 23263 23277 1    
 23267 23264 23269 ar   
 23268 23264 23265 ar   
 23269 23265 23272 1    
 23270 23265 23266 ar   
 23271 23266 23273 1    
 23272 23266 23267 ar   
 23273 23267 23268 ar   
 23274 23268 23274 1    
 23275 23268 23269 ar   
 23276 23269 23275 1    
 23277 23270 23271 1    
 23278 23271 23278 1    
 23279 23271 23280 1    
 23280 23271 23279 1    
 23281 23281 23296 1    
 23282 23281 23287 1    
 23283 23282 23290 2    
 23284 23283 23297 1    
 23285 23283 23290 am   BACKBONE|DICT|INTERRES
 23286 23283 23284 1    
 23287 23284 23285 ar   
 23288 23284 23289 ar   
 23289 23285 23292 1    
 23290 23285 23286 ar   
 23291 23286 23287 ar   
 23292 23286 23293 1    
 23293 23287 23288 ar   
 23294 23288 23289 ar   
 23295 23288 23294 1    
 23296 23289 23295 1    
 23297 23290 23291 1    
 23298 23291 23299 1    
 23299 23291 23298 1    
 23300 23291 23300 1    
 23301 23301 23316 1    
 23302 23301 23307 1    
 23303 23302 23310 2    
 23304 23303 23304 1    
 23305 23303 23317 1    
 23306 23303 23310 am   BACKBONE|DICT|INTERRES
 23307 23304 23305 ar   
 23308 23304 23309 ar   
 23309 23305 23306 ar   
 23310 23305 23312 1    
 23311 23306 23313 1    
 23312 23306 23307 ar   
 23313 23307 23308 ar   
 23314 23308 23314 1    
 23315 23308 23309 ar   
 23316 23309 23315 1    
 23317 23310 23311 1    
 23318 23311 23319 1    
 23319 23311 23318 1    
 23320 23311 23320 1    
 23321 23321 23336 1    
 23322 23321 23327 1    
 23323 23322 23330 2    
 23324 23323 23324 1    
 23325 23323 23337 1    
 23326 23323 23330 am   BACKBONE|DICT|INTERRES
 23327 23324 23329 ar   
 23328 23324 23325 ar   
 23329 23325 23326 ar   
 23330 23325 23332 1    
 23331 23326 23327 ar   
 23332 23326 23333 1    
 23333 23327 23328 ar   
 23334 23328 23329 ar   
 23335 23328 23334 1    
 23336 23329 23335 1    
 23337 23330 23331 1    
 23338 23331 23338 1    
 23339 23331 23340 1    
 23340 23331 23339 1    
 23341 23341 23347 1    
 23342 23341 23356 1    
 23343 23342 23350 2    
 23344 23343 23350 am   BACKBONE|DICT|INTERRES
 23345 23343 23344 1    
 23346 23343 23357 1    
 23347 23344 23349 ar   
 23348 23344 23345 ar   
 23349 23345 23352 1    
 23350 23345 23346 ar   
 23351 23346 23353 1    
 23352 23346 23347 ar   
 23353 23347 23348 ar   
 23354 23348 23354 1    
 23355 23348 23349 ar   
 23356 23349 23355 1    
 23357 23350 23351 1    
 23358 23351 23358 1    
 23359 23351 23360 1    
 23360 23351 23359 1    
 23361 23361 23376 1    
 23362 23361 23367 1    
 23363 23362 23370 2    
 23364 23363 23377 1    
 23365 23363 23370 am   BACKBONE|DICT|INTERRES
 23366 23363 23364 1    
 23367 23364 23365 ar   
 23368 23364 23369 ar   
 23369 23365 23372 1    
 23370 23365 23366 ar   
 23371 23366 23367 ar   
 23372 23366 23373 1    
 23373 23367 23368 ar   
 23374 23368 23369 ar   
 23375 23368 23374 1    
 23376 23369 23375 1    
 23377 23370 23371 1    
 23378 23371 23379 1    
 23379 23371 23378 1    
 23380 23371 23380 1    
 23381 23381 23396 1    
 23382 23381 23387 1    
 23383 23382 23390 2    
 23384 23383 23384 1    
 23385 23383 23397 1    
 23386 23383 23390 am   BACKBONE|DICT|INTERRES
 23387 23384 23385 ar   
 23388 23384 23389 ar   
 23389 23385 23386 ar   
 23390 23385 23392 1    
 23391 23386 23393 1    
 23392 23386 23387 ar   
 23393 23387 23388 ar   
 23394 23388 23394 1    
 23395 23388 23389 ar   
 23396 23389 23395 1    
 23397 23390 23391 1    
 23398 23391 23399 1    
 23399 23391 23398 1    
 23400 23391 23400 1    
 23401 23401 23416 1    
 23402 23401 23407 1    
 23403 23402 23410 2    
 23404 23403 23404 1    
 23405 23403 23417 1    
 23406 23403 23410 am   BACKBONE|DICT|INTERRES
 23407 23404 23409 ar   
 23408 23404 23405 ar   
 23409 23405 23406 ar   
 23410 23405 23412 1    
 23411 23406 23407 ar   
 23412 23406 23413 1    
 23413 23407 23408 ar   
 23414 23408 23409 ar   
 23415 23408 23414 1    
 23416 23409 23415 1    
 23417 23410 23411 1    
 23418 23411 23418 1    
 23419 23411 23420 1    
 23420 23411 23419 1    
 23421 23421 23427 1    
 23422 23421 23436 1    
 23423 23422 23430 2    
 23424 23423 23430 am   BACKBONE|DICT|INTERRES
 23425 23423 23424 1    
 23426 23423 23437 1    
 23427 23424 23429 ar   
 23428 23424 23425 ar   
 23429 23425 23432 1    
 23430 23425 23426 ar   
 23431 23426 23433 1    
 23432 23426 23427 ar   
 23433 23427 23428 ar   
 23434 23428 23434 1    
 23435 23428 23429 ar   
 23436 23429 23435 1    
 23437 23430 23431 1    
 23438 23431 23438 1    
 23439 23431 23440 1    
 23440 23431 23439 1    
 23441 23441 23456 1    
 23442 23441 23447 1    
 23443 23442 23450 2    
 23444 23443 23457 1    
 23445 23443 23450 am   BACKBONE|DICT|INTERRES
 23446 23443 23444 1    
 23447 23444 23445 ar   
 23448 23444 23449 ar   
 23449 23445 23452 1    
 23450 23445 23446 ar   
 23451 23446 23447 ar   
 23452 23446 23453 1    
 23453 23447 23448 ar   
 23454 23448 23449 ar   
 23455 23448 23454 1    
 23456 23449 23455 1    
 23457 23450 23451 1    
 23458 23451 23459 1    
 23459 23451 23458 1    
 23460 23451 23460 1    
 23461 23461 23476 1    
 23462 23461 23467 1    
 23463 23462 23470 2    
 23464 23463 23464 1    
 23465 23463 23477 1    
 23466 23463 23470 am   BACKBONE|DICT|INTERRES
 23467 23464 23465 ar   
 23468 23464 23469 ar   
 23469 23465 23466 ar   
 23470 23465 23472 1    
 23471 23466 23473 1    
 23472 23466 23467 ar   
 23473 23467 23468 ar   
 23474 23468 23474 1    
 23475 23468 23469 ar   
 23476 23469 23475 1    
 23477 23470 23471 1    
 23478 23471 23479 1    
 23479 23471 23478 1    
 23480 23471 23480 1    
 23481 23481 23496 1    
 23482 23481 23487 1    
 23483 23482 23490 2    
 23484 23483 23484 1    
 23485 23483 23497 1    
 23486 23483 23490 am   BACKBONE|DICT|INTERRES
 23487 23484 23489 ar   
 23488 23484 23485 ar   
 23489 23485 23486 ar   
 23490 23485 23492 1    
 23491 23486 23487 ar   
 23492 23486 23493 1    
 23493 23487 23488 ar   
 23494 23488 23489 ar   
 23495 23488 23494 1    
 23496 23489 23495 1    
 23497 23490 23491 1    
 23498 23491 23498 1    
 23499 23491 23500 1    
 23500 23491 23499 1    
 23501 23501 23507 1    
 23502 23501 23516 1    
 23503 23502 23510 2    
 23504 23503 23510 am   BACKBONE|DICT|INTERRES
 23505 23503 23504 1    
 23506 23503 23517 1    
 23507 23504 23509 ar   
 23508 23504 23505 ar   
 23509 23505 23512 1    
 23510 23505 23506 ar   
 23511 23506 23513 1    
 23512 23506 23507 ar   
 23513 23507 23508 ar   
 23514 23508 23514 1    
 23515 23508 23509 ar   
 23516 23509 23515 1    
 23517 23510 23511 1    
 23518 23511 23518 1    
 23519 23511 23520 1    
 23520 23511 23519 1    
 23521 23521 23536 1    
 23522 23521 23527 1    
 23523 23522 23530 2    
 23524 23523 23537 1    
 23525 23523 23530 am   BACKBONE|DICT|INTERRES
 23526 23523 23524 1    
 23527 23524 23525 ar   
 23528 23524 23529 ar   
 23529 23525 23532 1    
 23530 23525 23526 ar   
 23531 23526 23527 ar   
 23532 23526 23533 1    
 23533 23527 23528 ar   
 23534 23528 23529 ar   
 23535 23528 23534 1    
 23536 23529 23535 1    
 23537 23530 23531 1    
 23538 23531 23539 1    
 23539 23531 23538 1    
 23540 23531 23540 1    
 23541 23541 23556 1    
 23542 23541 23547 1    
 23543 23542 23550 2    
 23544 23543 23544 1    
 23545 23543 23557 1    
 23546 23543 23550 am   BACKBONE|DICT|INTERRES
 23547 23544 23545 ar   
 23548 23544 23549 ar   
 23549 23545 23546 ar   
 23550 23545 23552 1    
 23551 23546 23553 1    
 23552 23546 23547 ar   
 23553 23547 23548 ar   
 23554 23548 23554 1    
 23555 23548 23549 ar   
 23556 23549 23555 1    
 23557 23550 23551 1    
 23558 23551 23559 1    
 23559 23551 23558 1    
 23560 23551 23560 1    
 23561 23561 23576 1    
 23562 23561 23567 1    
 23563 23562 23570 2    
 23564 23563 23564 1    
 23565 23563 23577 1    
 23566 23563 23570 am   BACKBONE|DICT|INTERRES
 23567 23564 23569 ar   
 23568 23564 23565 ar   
 23569 23565 23566 ar   
 23570 23565 23572 1    
 23571 23566 23567 ar   
 23572 23566 23573 1    
 23573 23567 23568 ar   
 23574 23568 23569 ar   
 23575 23568 23574 1    
 23576 23569 23575 1    
 23577 23570 23571 1    
 23578 23571 23578 1    
 23579 23571 23580 1    
 23580 23571 23579 1    
 23581 23581 23587 1    
 23582 23581 23596 1    
 23583 23582 23590 2    
 23584 23583 23590 am   BACKBONE|DICT|INTERRES
 23585 23583 23584 1    
 23586 23583 23597 1    
 23587 23584 23589 ar   
 23588 23584 23585 ar   
 23589 23585 23592 1    
 23590 23585 23586 ar   
 23591 23586 23593 1    
 23592 23586 23587 ar   
 23593 23587 23588 ar   
 23594 23588 23594 1    
 23595 23588 23589 ar   
 23596 23589 23595 1    
 23597 23590 23591 1    
 23598 23591 23598 1    
 23599 23591 23600 1    
 23600 23591 23599 1    
 23601 23601 23616 1    
 23602 23601 23607 1    
 23603 23602 23610 2    
 23604 23603 23617 1    
 23605 23603 23610 am   BACKBONE|DICT|INTERRES
 23606 23603 23604 1    
 23607 23604 23605 ar   
 23608 23604 23609 ar   
 23609 23605 23612 1    
 23610 23605 23606 ar   
 23611 23606 23607 ar   
 23612 23606 23613 1    
 23613 23607 23608 ar   
 23614 23608 23609 ar   
 23615 23608 23614 1    
 23616 23609 23615 1    
 23617 23610 23611 1    
 23618 23611 23619 1    
 23619 23611 23618 1    
 23620 23611 23620 1    
 23621 23621 23636 1    
 23622 23621 23627 1    
 23623 23622 23630 2    
 23624 23623 23624 1    
 23625 23623 23637 1    
 23626 23623 23630 am   BACKBONE|DICT|INTERRES
 23627 23624 23625 ar   
 23628 23624 23629 ar   
 23629 23625 23626 ar   
 23630 23625 23632 1    
 23631 23626 23633 1    
 23632 23626 23627 ar   
 23633 23627 23628 ar   
 23634 23628 23634 1    
 23635 23628 23629 ar   
 23636 23629 23635 1    
 23637 23630 23631 1    
 23638 23631 23639 1    
 23639 23631 23638 1    
 23640 23631 23640 1    
 23641 23641 23656 1    
 23642 23641 23647 1    
 23643 23642 23650 2    
 23644 23643 23644 1    
 23645 23643 23657 1    
 23646 23643 23650 am   BACKBONE|DICT|INTERRES
 23647 23644 23649 ar   
 23648 23644 23645 ar   
 23649 23645 23646 ar   
 23650 23645 23652 1    
 23651 23646 23647 ar   
 23652 23646 23653 1    
 23653 23647 23648 ar   
 23654 23648 23649 ar   
 23655 23648 23654 1    
 23656 23649 23655 1    
 23657 23650 23651 1    
 23658 23651 23658 1    
 23659 23651 23660 1    
 23660 23651 23659 1    
 23661 23661 23667 1    
 23662 23661 23676 1    
 23663 23662 23670 2    
 23664 23663 23670 am   BACKBONE|DICT|INTERRES
 23665 23663 23664 1    
 23666 23663 23677 1    
 23667 23664 23669 ar   
 23668 23664 23665 ar   
 23669 23665 23672 1    
 23670 23665 23666 ar   
 23671 23666 23673 1    
 23672 23666 23667 ar   
 23673 23667 23668 ar   
 23674 23668 23674 1    
 23675 23668 23669 ar   
 23676 23669 23675 1    
 23677 23670 23671 1    
 23678 23671 23678 1    
 23679 23671 23680 1    
 23680 23671 23679 1    
 23681 23681 23696 1    
 23682 23681 23687 1    
 23683 23682 23690 2    
 23684 23683 23697 1    
 23685 23683 23690 am   BACKBONE|DICT|INTERRES
 23686 23683 23684 1    
 23687 23684 23685 ar   
 23688 23684 23689 ar   
 23689 23685 23692 1    
 23690 23685 23686 ar   
 23691 23686 23687 ar   
 23692 23686 23693 1    
 23693 23687 23688 ar   
 23694 23688 23689 ar   
 23695 23688 23694 1    
 23696 23689 23695 1    
 23697 23690 23691 1    
 23698 23691 23699 1    
 23699 23691 23698 1    
 23700 23691 23700 1    
 23701 23701 23716 1    
 23702 23701 23707 1    
 23703 23702 23710 2    
 23704 23703 23704 1    
 23705 23703 23717 1    
 23706 23703 23710 am   BACKBONE|DICT|INTERRES
 23707 23704 23705 ar   
 23708 23704 23709 ar   
 23709 23705 23706 ar   
 23710 23705 23712 1    
 23711 23706 23713 1    
 23712 23706 23707 ar   
 23713 23707 23708 ar   
 23714 23708 23714 1    
 23715 23708 23709 ar   
 23716 23709 23715 1    
 23717 23710 23711 1    
 23718 23711 23719 1    
 23719 23711 23718 1    
 23720 23711 23720 1    
 23721 23721 23736 1    
 23722 23721 23727 1    
 23723 23722 23730 2    
 23724 23723 23724 1    
 23725 23723 23737 1    
 23726 23723 23730 am   BACKBONE|DICT|INTERRES
 23727 23724 23729 ar   
 23728 23724 23725 ar   
 23729 23725 23726 ar   
 23730 23725 23732 1    
 23731 23726 23727 ar   
 23732 23726 23733 1    
 23733 23727 23728 ar   
 23734 23728 23729 ar   
 23735 23728 23734 1    
 23736 23729 23735 1    
 23737 23730 23731 1    
 23738 23731 23738 1    
 23739 23731 23740 1    
 23740 23731 23739 1    
 23741 23741 23747 1    
 23742 23741 23756 1    
 23743 23742 23750 2    
 23744 23743 23750 am   BACKBONE|DICT|INTERRES
 23745 23743 23744 1    
 23746 23743 23757 1    
 23747 23744 23749 ar   
 23748 23744 23745 ar   
 23749 23745 23752 1    
 23750 23745 23746 ar   
 23751 23746 23753 1    
 23752 23746 23747 ar   
 23753 23747 23748 ar   
 23754 23748 23754 1    
 23755 23748 23749 ar   
 23756 23749 23755 1    
 23757 23750 23751 1    
 23758 23751 23758 1    
 23759 23751 23760 1    
 23760 23751 23759 1    
 23761 23761 23776 1    
 23762 23761 23767 1    
 23763 23762 23770 2    
 23764 23763 23777 1    
 23765 23763 23770 am   BACKBONE|DICT|INTERRES
 23766 23763 23764 1    
 23767 23764 23765 ar   
 23768 23764 23769 ar   
 23769 23765 23772 1    
 23770 23765 23766 ar   
 23771 23766 23767 ar   
 23772 23766 23773 1    
 23773 23767 23768 ar   
 23774 23768 23769 ar   
 23775 23768 23774 1    
 23776 23769 23775 1    
 23777 23770 23771 1    
 23778 23771 23779 1    
 23779 23771 23778 1    
 23780 23771 23780 1    
 23781 23781 23796 1    
 23782 23781 23787 1    
 23783 23782 23790 2    
 23784 23783 23784 1    
 23785 23783 23797 1    
 23786 23783 23790 am   BACKBONE|DICT|INTERRES
 23787 23784 23785 ar   
 23788 23784 23789 ar   
 23789 23785 23786 ar   
 23790 23785 23792 1    
 23791 23786 23793 1    
 23792 23786 23787 ar   
 23793 23787 23788 ar   
 23794 23788 23794 1    
 23795 23788 23789 ar   
 23796 23789 23795 1    
 23797 23790 23791 1    
 23798 23791 23799 1    
 23799 23791 23798 1    
 23800 23791 23800 1    
 23801 23801 23816 1    
 23802 23801 23807 1    
 23803 23802 23810 2    
 23804 23803 23804 1    
 23805 23803 23817 1    
 23806 23803 23810 am   BACKBONE|DICT|INTERRES
 23807 23804 23809 ar   
 23808 23804 23805 ar   
 23809 23805 23806 ar   
 23810 23805 23812 1    
 23811 23806 23807 ar   
 23812 23806 23813 1    
 23813 23807 23808 ar   
 23814 23808 23809 ar   
 23815 23808 23814 1    
 23816 23809 23815 1    
 23817 23810 23811 1    
 23818 23811 23818 1    
 23819 23811 23820 1    
 23820 23811 23819 1    
 23821 23821 23827 1    
 23822 23821 23836 1    
 23823 23822 23830 2    
 23824 23823 23830 am   BACKBONE|DICT|INTERRES
 23825 23823 23824 1    
 23826 23823 23837 1    
 23827 23824 23829 ar   
 23828 23824 23825 ar   
 23829 23825 23832 1    
 23830 23825 23826 ar   
 23831 23826 23833 1    
 23832 23826 23827 ar   
 23833 23827 23828 ar   
 23834 23828 23834 1    
 23835 23828 23829 ar   
 23836 23829 23835 1    
 23837 23830 23831 1    
 23838 23831 23838 1    
 23839 23831 23840 1    
 23840 23831 23839 1    
 23841 23841 23856 1    
 23842 23841 23847 1    
 23843 23842 23850 2    
 23844 23843 23857 1    
 23845 23843 23850 am   BACKBONE|DICT|INTERRES
 23846 23843 23844 1    
 23847 23844 23845 ar   
 23848 23844 23849 ar   
 23849 23845 23852 1    
 23850 23845 23846 ar   
 23851 23846 23847 ar   
 23852 23846 23853 1    
 23853 23847 23848 ar   
 23854 23848 23849 ar   
 23855 23848 23854 1    
 23856 23849 23855 1    
 23857 23850 23851 1    
 23858 23851 23859 1    
 23859 23851 23858 1    
 23860 23851 23860 1    
 23861 23861 23876 1    
 23862 23861 23867 1    
 23863 23862 23870 2    
 23864 23863 23864 1    
 23865 23863 23877 1    
 23866 23863 23870 am   BACKBONE|DICT|INTERRES
 23867 23864 23865 ar   
 23868 23864 23869 ar   
 23869 23865 23866 ar   
 23870 23865 23872 1    
 23871 23866 23873 1    
 23872 23866 23867 ar   
 23873 23867 23868 ar   
 23874 23868 23874 1    
 23875 23868 23869 ar   
 23876 23869 23875 1    
 23877 23870 23871 1    
 23878 23871 23879 1    
 23879 23871 23878 1    
 23880 23871 23880 1    
 23881 23881 23896 1    
 23882 23881 23887 1    
 23883 23882 23890 2    
 23884 23883 23884 1    
 23885 23883 23897 1    
 23886 23883 23890 am   BACKBONE|DICT|INTERRES
 23887 23884 23889 ar   
 23888 23884 23885 ar   
 23889 23885 23886 ar   
 23890 23885 23892 1    
 23891 23886 23887 ar   
 23892 23886 23893 1    
 23893 23887 23888 ar   
 23894 23888 23889 ar   
 23895 23888 23894 1    
 23896 23889 23895 1    
 23897 23890 23891 1    
 23898 23891 23898 1    
 23899 23891 23900 1    
 23900 23891 23899 1    
 23901 23901 23907 1    
 23902 23901 23916 1    
 23903 23902 23910 2    
 23904 23903 23910 am   BACKBONE|DICT|INTERRES
 23905 23903 23904 1    
 23906 23903 23917 1    
 23907 23904 23909 ar   
 23908 23904 23905 ar   
 23909 23905 23912 1    
 23910 23905 23906 ar   
 23911 23906 23913 1    
 23912 23906 23907 ar   
 23913 23907 23908 ar   
 23914 23908 23914 1    
 23915 23908 23909 ar   
 23916 23909 23915 1    
 23917 23910 23911 1    
 23918 23911 23918 1    
 23919 23911 23920 1    
 23920 23911 23919 1    
 23921 23921 23936 1    
 23922 23921 23927 1    
 23923 23922 23930 2    
 23924 23923 23937 1    
 23925 23923 23930 am   BACKBONE|DICT|INTERRES
 23926 23923 23924 1    
 23927 23924 23925 ar   
 23928 23924 23929 ar   
 23929 23925 23932 1    
 23930 23925 23926 ar   
 23931 23926 23927 ar   
 23932 23926 23933 1    
 23933 23927 23928 ar   
 23934 23928 23929 ar   
 23935 23928 23934 1    
 23936 23929 23935 1    
 23937 23930 23931 1    
 23938 23931 23939 1    
 23939 23931 23938 1    
 23940 23931 23940 1    
 23941 23941 23956 1    
 23942 23941 23947 1    
 23943 23942 23950 2    
 23944 23943 23944 1    
 23945 23943 23957 1    
 23946 23943 23950 am   BACKBONE|DICT|INTERRES
 23947 23944 23945 ar   
 23948 23944 23949 ar   
 23949 23945 23946 ar   
 23950 23945 23952 1    
 23951 23946 23953 1    
 23952 23946 23947 ar   
 23953 23947 23948 ar   
 23954 23948 23954 1    
 23955 23948 23949 ar   
 23956 23949 23955 1    
 23957 23950 23951 1    
 23958 23951 23959 1    
 23959 23951 23958 1    
 23960 23951 23960 1    
 23961 23961 23976 1    
 23962 23961 23967 1    
 23963 23962 23970 2    
 23964 23963 23964 1    
 23965 23963 23977 1    
 23966 23963 23970 am   BACKBONE|DICT|INTERRES
 23967 23964 23969 ar   
 23968 23964 23965 ar   
 23969 23965 23966 ar   
 23970 23965 23972 1    
 23971 23966 23967 ar   
 23972 23966 23973 1    
 23973 23967 23968 ar   
 23974 23968 23969 ar   
 23975 23968 23974 1    
 23976 23969 23975 1    
 23977 23970 23971 1    
 23978 23971 23978 1    
 23979 23971 23980 1    
 23980 23971 23979 1    
 23981 23981 23987 1    
 23982 23981 23996 1    
 23983 23982 23990 2    
 23984 23983 23990 am   BACKBONE|DICT|INTERRES
 23985 23983 23984 1    
 23986 23983 23997 1    
 23987 23984 23989 ar   
 23988 23984 23985 ar   
 23989 23985 23992 1    
 23990 23985 23986 ar   
 23991 23986 23993 1    
 23992 23986 23987 ar   
 23993 23987 23988 ar   
 23994 23988 23994 1    
 23995 23988 23989 ar   
 23996 23989 23995 1    
 23997 23990 23991 1    
 23998 23991 23998 1    
 23999 23991 24000 1    
 24000 23991 23999 1    
@<TRIPOS>SUBSTRUCTURE
     1 UNK         1 GROUP             0       ****    0 ROOT    
