# generated using pymatgen
data_H14C13(NO)6
_symmetry_space_group_name_H-M   'P 1'
_cell_length_a   22.59330000
_cell_length_b   23.68410000
_cell_length_c   28.43980000
_cell_angle_alpha   78.16600000
_cell_angle_beta   75.12800000
_cell_angle_gamma   66.75000000
_symmetry_Int_Tables_number   1
_chemical_formula_structural   H14C13(NO)6
_chemical_formula_sum   'H504 C468 N216 O216'
_cell_volume   13421.38469143
_cell_formula_units_Z   36
loop_
 _symmetry_equiv_pos_site_id
 _symmetry_equiv_pos_as_xyz
  1  'x, y, z'
loop_
 _atom_site_type_symbol
 _atom_site_label
 _atom_site_symmetry_multiplicity
 _atom_site_fract_x
 _atom_site_fract_y
 _atom_site_fract_z
 _atom_site_occupancy
  H  H0  1  0.37143335  0.24813333  0.04075000  1
  C  C1  1  0.32653333  0.25096668  0.04713002  1
  H  H2  1  0.31373333  0.25393331  0.01674999  1
  N  N3  1  0.31990001  0.19540000  0.07895999  1
  H  H4  1  0.29883331  0.28710001  0.06315001  1
  C  C5  1  0.27236668  0.20543334  0.12189499  1
  C  C6  1  0.36316668  0.13829999  0.06476001  1
  N  N7  1  0.26713334  0.15363334  0.15288501  1
  O  O8  1  0.23699998  0.25703333  0.13181000  1
  C  C9  1  0.35416668  0.08816668  0.09853000  1
  O  O10  1  0.40459999  0.13357002  0.02648001  1
  C  C11  1  0.22023336  0.16196666  0.19928500  1
  C  C12  1  0.30823334  0.09613335  0.14081500  1
  N  N13  1  0.38746667  0.02490000  0.09895500  1
  H  H14  1  0.19870000  0.13266667  0.20534998  1
  H  H15  1  0.18813335  0.20320000  0.19774998  1
  H  H16  1  0.24299999  0.15546666  0.22530000  1
  N  N17  1  0.31013333  0.04139998  0.16785001  1
  C  C18  1  0.35929999  -0.00076669  0.14062500  1
  C  C19  1  0.44336667  -0.00829999  0.06352501  1
  H  H20  1  0.37226669  -0.04323334  0.14985001  1
  H  H21  1  0.43033332  -0.00236665  0.03274998  1
  H  H22  1  0.45863333  -0.05160001  0.07520002  1
  H  H23  1  0.47803332  0.00720001  0.05924999  1
  H  H24  1  -0.37143335  -0.24813333  -0.04075000  1
  C  C25  1  -0.32653333  -0.25096668  -0.04713002  1
  H  H26  1  -0.31373333  -0.25393331  -0.01674999  1
  N  N27  1  -0.31990001  -0.19540000  -0.07895999  1
  H  H28  1  -0.29883331  -0.28710001  -0.06315001  1
  C  C29  1  -0.27236668  -0.20543334  -0.12189499  1
  C  C30  1  -0.36316668  -0.13829999  -0.06476001  1
  N  N31  1  -0.26713334  -0.15363334  -0.15288501  1
  O  O32  1  -0.23699998  -0.25703333  -0.13181000  1
  C  C33  1  -0.35416668  -0.08816668  -0.09853000  1
  O  O34  1  -0.40459999  -0.13357002  -0.02648001  1
  C  C35  1  -0.22023336  -0.16196666  -0.19928500  1
  C  C36  1  -0.30823334  -0.09613335  -0.14081500  1
  N  N37  1  -0.38746667  -0.02490000  -0.09895500  1
  H  H38  1  -0.19870000  -0.13266667  -0.20534998  1
  H  H39  1  -0.18813335  -0.20320000  -0.19774998  1
  H  H40  1  -0.24299999  -0.15546666  -0.22530000  1
  N  N41  1  -0.31013333  -0.04139998  -0.16785001  1
  C  C42  1  -0.35929999  0.00076669  -0.14062500  1
  C  C43  1  -0.44336667  0.00829999  -0.06352501  1
  H  H44  1  -0.37226669  0.04323334  -0.14985001  1
  H  H45  1  -0.43033332  0.00236665  -0.03274998  1
  H  H46  1  -0.45863333  0.05160001  -0.07520002  1
  H  H47  1  -0.47803332  -0.00720001  -0.05924999  1
  H  H48  1  0.37143335  0.24813333  0.54075000  1
  C  C49  1  0.32653333  0.25096668  0.54713002  1
  H  H50  1  0.31373333  0.25393331  0.51674999  1
  N  N51  1  0.31990001  0.19540000  0.57895999  1
  H  H52  1  0.29883331  0.28710001  0.56315001  1
  C  C53  1  0.27236668  0.20543334  0.62189499  1
  C  C54  1  0.36316668  0.13829999  0.56476001  1
  N  N55  1  0.26713334  0.15363334  0.65288501  1
  O  O56  1  0.23699998  0.25703333  0.63181000  1
  C  C57  1  0.35416668  0.08816668  0.59853000  1
  O  O58  1  0.40459999  0.13357002  0.52648001  1
  C  C59  1  0.22023336  0.16196666  0.69928500  1
  C  C60  1  0.30823334  0.09613335  0.64081500  1
  N  N61  1  0.38746667  0.02490000  0.59895500  1
  H  H62  1  0.19870000  0.13266667  0.70534998  1
  H  H63  1  0.18813335  0.20320000  0.69774998  1
  H  H64  1  0.24299999  0.15546666  0.72530000  1
  N  N65  1  0.31013333  0.04139998  0.66785001  1
  C  C66  1  0.35929999  -0.00076669  0.64062500  1
  C  C67  1  0.44336667  -0.00829999  0.56352501  1
  H  H68  1  0.37226669  -0.04323334  0.64985001  1
  H  H69  1  0.43033332  -0.00236665  0.53274998  1
  H  H70  1  0.45863333  -0.05160001  0.57520002  1
  H  H71  1  0.47803332  0.00720001  0.55924999  1
  H  H72  1  -0.37143335  -0.24813333  0.45925000  1
  C  C73  1  -0.32653333  -0.25096668  0.45286998  1
  H  H74  1  -0.31373333  -0.25393331  0.48325001  1
  N  N75  1  -0.31990001  -0.19540000  0.42104001  1
  H  H76  1  -0.29883331  -0.28710001  0.43684999  1
  C  C77  1  -0.27236668  -0.20543334  0.37810501  1
  C  C78  1  -0.36316668  -0.13829999  0.43523999  1
  N  N79  1  -0.26713334  -0.15363334  0.34711499  1
  O  O80  1  -0.23699998  -0.25703333  0.36819000  1
  C  C81  1  -0.35416668  -0.08816668  0.40147000  1
  O  O82  1  -0.40459999  -0.13357002  0.47351999  1
  C  C83  1  -0.22023336  -0.16196666  0.30071500  1
  C  C84  1  -0.30823334  -0.09613335  0.35918500  1
  N  N85  1  -0.38746667  -0.02490000  0.40104500  1
  H  H86  1  -0.19870000  -0.13266667  0.29465002  1
  H  H87  1  -0.18813335  -0.20320000  0.30225002  1
  H  H88  1  -0.24299999  -0.15546666  0.27470000  1
  N  N89  1  -0.31013333  -0.04139998  0.33214999  1
  C  C90  1  -0.35929999  0.00076669  0.35937500  1
  C  C91  1  -0.44336667  0.00829999  0.43647499  1
  H  H92  1  -0.37226669  0.04323334  0.35014999  1
  H  H93  1  -0.43033332  0.00236665  0.46725002  1
  H  H94  1  -0.45863333  0.05160001  0.42479998  1
  H  H95  1  -0.47803332  -0.00720001  0.44075001  1
  H  H96  1  0.37143335  0.58146666  0.04075000  1
  C  C97  1  0.32653333  0.58430001  0.04713002  1
  H  H98  1  0.31373333  0.58726665  0.01674999  1
  N  N99  1  0.31990001  0.52873334  0.07895999  1
  H  H100  1  0.29883331  0.62043334  0.06315001  1
  C  C101  1  0.27236668  0.53876667  0.12189499  1
  C  C102  1  0.36316668  0.47163333  0.06476001  1
  N  N103  1  0.26713334  0.48696668  0.15288501  1
  O  O104  1  0.23699998  0.59036666  0.13181000  1
  C  C105  1  0.35416668  0.42150002  0.09853000  1
  O  O106  1  0.40459999  0.46690335  0.02648001  1
  C  C107  1  0.22023336  0.49529999  0.19928500  1
  C  C108  1  0.30823334  0.42946668  0.14081500  1
  N  N109  1  0.38746667  0.35823333  0.09895500  1
  H  H110  1  0.19870000  0.46600000  0.20534998  1
  H  H111  1  0.18813335  0.53653333  0.19774998  1
  H  H112  1  0.24299999  0.48880000  0.22530000  1
  N  N113  1  0.31013333  0.37473331  0.16785001  1
  C  C114  1  0.35929999  0.33256664  0.14062500  1
  C  C115  1  0.44336667  0.32503335  0.06352501  1
  H  H116  1  0.37226669  0.29010000  0.14985001  1
  H  H117  1  0.43033332  0.33096669  0.03274998  1
  H  H118  1  0.45863333  0.28173332  0.07520002  1
  H  H119  1  0.47803332  0.34053334  0.05924999  1
  H  H120  1  -0.37143335  0.08520000  -0.04075000  1
  C  C121  1  -0.32653333  0.08236665  -0.04713002  1
  H  H122  1  -0.31373333  0.07940002  -0.01674999  1
  N  N123  1  -0.31990001  0.13793333  -0.07895999  1
  H  H124  1  -0.29883331  0.04623332  -0.06315001  1
  C  C125  1  -0.27236668  0.12789999  -0.12189499  1
  C  C126  1  -0.36316668  0.19503334  -0.06476001  1
  N  N127  1  -0.26713334  0.17969999  -0.15288501  1
  O  O128  1  -0.23699998  0.07630000  -0.13181000  1
  C  C129  1  -0.35416668  0.24516665  -0.09853000  1
  O  O130  1  -0.40459999  0.19976331  -0.02648001  1
  C  C131  1  -0.22023336  0.17136668  -0.19928500  1
  C  C132  1  -0.30823334  0.23719999  -0.14081500  1
  N  N133  1  -0.38746667  0.30843333  -0.09895500  1
  H  H134  1  -0.19870000  0.20066666  -0.20534998  1
  H  H135  1  -0.18813335  0.13013334  -0.19774998  1
  H  H136  1  -0.24299999  0.17786667  -0.22530000  1
  N  N137  1  -0.31013333  0.29193336  -0.16785001  1
  C  C138  1  -0.35929999  0.33410002  -0.14062500  1
  C  C139  1  -0.44336667  0.34163332  -0.06352501  1
  H  H140  1  -0.37226669  0.37656667  -0.14985001  1
  H  H141  1  -0.43033332  0.33569998  -0.03274998  1
  H  H142  1  -0.45863333  0.38493334  -0.07520002  1
  H  H143  1  -0.47803332  0.32613332  -0.05924999  1
  H  H144  1  0.37143335  0.58146666  0.54075000  1
  C  C145  1  0.32653333  0.58430001  0.54713002  1
  H  H146  1  0.31373333  0.58726665  0.51674999  1
  N  N147  1  0.31990001  0.52873334  0.57895999  1
  H  H148  1  0.29883331  0.62043334  0.56315001  1
  C  C149  1  0.27236668  0.53876667  0.62189499  1
  C  C150  1  0.36316668  0.47163333  0.56476001  1
  N  N151  1  0.26713334  0.48696668  0.65288501  1
  O  O152  1  0.23699998  0.59036666  0.63181000  1
  C  C153  1  0.35416668  0.42150002  0.59853000  1
  O  O154  1  0.40459999  0.46690335  0.52648001  1
  C  C155  1  0.22023336  0.49529999  0.69928500  1
  C  C156  1  0.30823334  0.42946668  0.64081500  1
  N  N157  1  0.38746667  0.35823333  0.59895500  1
  H  H158  1  0.19870000  0.46600000  0.70534998  1
  H  H159  1  0.18813335  0.53653333  0.69774998  1
  H  H160  1  0.24299999  0.48880000  0.72530000  1
  N  N161  1  0.31013333  0.37473331  0.66785001  1
  C  C162  1  0.35929999  0.33256664  0.64062500  1
  C  C163  1  0.44336667  0.32503335  0.56352501  1
  H  H164  1  0.37226669  0.29010000  0.64985001  1
  H  H165  1  0.43033332  0.33096669  0.53274998  1
  H  H166  1  0.45863333  0.28173332  0.57520002  1
  H  H167  1  0.47803332  0.34053334  0.55924999  1
  H  H168  1  -0.37143335  0.08520000  0.45925000  1
  C  C169  1  -0.32653333  0.08236665  0.45286998  1
  H  H170  1  -0.31373333  0.07940002  0.48325001  1
  N  N171  1  -0.31990001  0.13793333  0.42104001  1
  H  H172  1  -0.29883331  0.04623332  0.43684999  1
  C  C173  1  -0.27236668  0.12789999  0.37810501  1
  C  C174  1  -0.36316668  0.19503334  0.43523999  1
  N  N175  1  -0.26713334  0.17969999  0.34711499  1
  O  O176  1  -0.23699998  0.07630000  0.36819000  1
  C  C177  1  -0.35416668  0.24516665  0.40147000  1
  O  O178  1  -0.40459999  0.19976331  0.47351999  1
  C  C179  1  -0.22023336  0.17136668  0.30071500  1
  C  C180  1  -0.30823334  0.23719999  0.35918500  1
  N  N181  1  -0.38746667  0.30843333  0.40104500  1
  H  H182  1  -0.19870000  0.20066666  0.29465002  1
  H  H183  1  -0.18813335  0.13013334  0.30225002  1
  H  H184  1  -0.24299999  0.17786667  0.27470000  1
  N  N185  1  -0.31013333  0.29193336  0.33214999  1
  C  C186  1  -0.35929999  0.33410002  0.35937500  1
  C  C187  1  -0.44336667  0.34163332  0.43647499  1
  H  H188  1  -0.37226669  0.37656667  0.35014999  1
  H  H189  1  -0.43033332  0.33569998  0.46725002  1
  H  H190  1  -0.45863333  0.38493334  0.42479998  1
  H  H191  1  -0.47803332  0.32613332  0.44075001  1
  H  H192  1  0.37143335  0.91480000  0.04075000  1
  C  C193  1  0.32653333  0.91763335  0.04713002  1
  H  H194  1  0.31373333  0.92059998  0.01674999  1
  N  N195  1  0.31990001  0.86206667  0.07895999  1
  H  H196  1  0.29883331  0.95376668  0.06315001  1
  C  C197  1  0.27236668  0.87210001  0.12189499  1
  C  C198  1  0.36316668  0.80496666  0.06476001  1
  N  N199  1  0.26713334  0.82030001  0.15288501  1
  O  O200  1  0.23699998  0.92370000  0.13181000  1
  C  C201  1  0.35416668  0.75483335  0.09853000  1
  O  O202  1  0.40459999  0.80023669  0.02648001  1
  C  C203  1  0.22023336  0.82863332  0.19928500  1
  C  C204  1  0.30823334  0.76280001  0.14081500  1
  N  N205  1  0.38746667  0.69156667  0.09895500  1
  H  H206  1  0.19870000  0.79933334  0.20534998  1
  H  H207  1  0.18813335  0.86986666  0.19774998  1
  H  H208  1  0.24299999  0.82213333  0.22530000  1
  N  N209  1  0.31013333  0.70806664  0.16785001  1
  C  C210  1  0.35929999  0.66589998  0.14062500  1
  C  C211  1  0.44336667  0.65836668  0.06352501  1
  H  H212  1  0.37226669  0.62343333  0.14985001  1
  H  H213  1  0.43033332  0.66430002  0.03274998  1
  H  H214  1  0.45863333  0.61506666  0.07520002  1
  H  H215  1  0.47803332  0.67386668  0.05924999  1
  H  H216  1  -0.37143335  0.41853334  -0.04075000  1
  C  C217  1  -0.32653333  0.41569999  -0.04713002  1
  H  H218  1  -0.31373333  0.41273335  -0.01674999  1
  N  N219  1  -0.31990001  0.47126666  -0.07895999  1
  H  H220  1  -0.29883331  0.37956666  -0.06315001  1
  C  C221  1  -0.27236668  0.46123333  -0.12189499  1
  C  C222  1  -0.36316668  0.52836667  -0.06476001  1
  N  N223  1  -0.26713334  0.51303332  -0.15288501  1
  O  O224  1  -0.23699998  0.40963334  -0.13181000  1
  C  C225  1  -0.35416668  0.57849998  -0.09853000  1
  O  O226  1  -0.40459999  0.53309665  -0.02648001  1
  C  C227  1  -0.22023336  0.50470001  -0.19928500  1
  C  C228  1  -0.30823334  0.57053332  -0.14081500  1
  N  N229  1  -0.38746667  0.64176667  -0.09895500  1
  H  H230  1  -0.19870000  0.53400000  -0.20534998  1
  H  H231  1  -0.18813335  0.46346667  -0.19774998  1
  H  H232  1  -0.24299999  0.51120000  -0.22530000  1
  N  N233  1  -0.31013333  0.62526669  -0.16785001  1
  C  C234  1  -0.35929999  0.66743336  -0.14062500  1
  C  C235  1  -0.44336667  0.67496665  -0.06352501  1
  H  H236  1  -0.37226669  0.70990000  -0.14985001  1
  H  H237  1  -0.43033332  0.66903331  -0.03274998  1
  H  H238  1  -0.45863333  0.71826668  -0.07520002  1
  H  H239  1  -0.47803332  0.65946666  -0.05924999  1
  H  H240  1  0.37143335  0.91480000  0.54075000  1
  C  C241  1  0.32653333  0.91763335  0.54713002  1
  H  H242  1  0.31373333  0.92059998  0.51674999  1
  N  N243  1  0.31990001  0.86206667  0.57895999  1
  H  H244  1  0.29883331  0.95376668  0.56315001  1
  C  C245  1  0.27236668  0.87210001  0.62189499  1
  C  C246  1  0.36316668  0.80496666  0.56476001  1
  N  N247  1  0.26713334  0.82030001  0.65288501  1
  O  O248  1  0.23699998  0.92370000  0.63181000  1
  C  C249  1  0.35416668  0.75483335  0.59853000  1
  O  O250  1  0.40459999  0.80023669  0.52648001  1
  C  C251  1  0.22023336  0.82863332  0.69928500  1
  C  C252  1  0.30823334  0.76280001  0.64081500  1
  N  N253  1  0.38746667  0.69156667  0.59895500  1
  H  H254  1  0.19870000  0.79933334  0.70534998  1
  H  H255  1  0.18813335  0.86986666  0.69774998  1
  H  H256  1  0.24299999  0.82213333  0.72530000  1
  N  N257  1  0.31013333  0.70806664  0.66785001  1
  C  C258  1  0.35929999  0.66589998  0.64062500  1
  C  C259  1  0.44336667  0.65836668  0.56352501  1
  H  H260  1  0.37226669  0.62343333  0.64985001  1
  H  H261  1  0.43033332  0.66430002  0.53274998  1
  H  H262  1  0.45863333  0.61506666  0.57520002  1
  H  H263  1  0.47803332  0.67386668  0.55924999  1
  H  H264  1  -0.37143335  0.41853334  0.45925000  1
  C  C265  1  -0.32653333  0.41569999  0.45286998  1
  H  H266  1  -0.31373333  0.41273335  0.48325001  1
  N  N267  1  -0.31990001  0.47126666  0.42104001  1
  H  H268  1  -0.29883331  0.37956666  0.43684999  1
  C  C269  1  -0.27236668  0.46123333  0.37810501  1
  C  C270  1  -0.36316668  0.52836667  0.43523999  1
  N  N271  1  -0.26713334  0.51303332  0.34711499  1
  O  O272  1  -0.23699998  0.40963334  0.36819000  1
  C  C273  1  -0.35416668  0.57849998  0.40147000  1
  O  O274  1  -0.40459999  0.53309665  0.47351999  1
  C  C275  1  -0.22023336  0.50470001  0.30071500  1
  C  C276  1  -0.30823334  0.57053332  0.35918500  1
  N  N277  1  -0.38746667  0.64176667  0.40104500  1
  H  H278  1  -0.19870000  0.53400000  0.29465002  1
  H  H279  1  -0.18813335  0.46346667  0.30225002  1
  H  H280  1  -0.24299999  0.51120000  0.27470000  1
  N  N281  1  -0.31013333  0.62526669  0.33214999  1
  C  C282  1  -0.35929999  0.66743336  0.35937500  1
  C  C283  1  -0.44336667  0.67496665  0.43647499  1
  H  H284  1  -0.37226669  0.70990000  0.35014999  1
  H  H285  1  -0.43033332  0.66903331  0.46725002  1
  H  H286  1  -0.45863333  0.71826668  0.42479998  1
  H  H287  1  -0.47803332  0.65946666  0.44075001  1
  H  H288  1  0.70476668  0.24813333  0.04075000  1
  C  C289  1  0.65986667  0.25096668  0.04713002  1
  H  H290  1  0.64706666  0.25393331  0.01674999  1
  N  N291  1  0.65323335  0.19540000  0.07895999  1
  H  H292  1  0.63216664  0.28710001  0.06315001  1
  C  C293  1  0.60570002  0.20543334  0.12189499  1
  C  C294  1  0.69650001  0.13829999  0.06476001  1
  N  N295  1  0.60046667  0.15363334  0.15288501  1
  O  O296  1  0.57033332  0.25703333  0.13181000  1
  C  C297  1  0.68750001  0.08816668  0.09853000  1
  O  O298  1  0.73793333  0.13357002  0.02648001  1
  C  C299  1  0.55356669  0.16196666  0.19928500  1
  C  C300  1  0.64156668  0.09613335  0.14081500  1
  N  N301  1  0.72080000  0.02490000  0.09895500  1
  H  H302  1  0.53203334  0.13266667  0.20534998  1
  H  H303  1  0.52146668  0.20320000  0.19774998  1
  H  H304  1  0.57633332  0.15546666  0.22530000  1
  N  N305  1  0.64346666  0.04139998  0.16785001  1
  C  C306  1  0.69263333  -0.00076669  0.14062500  1
  C  C307  1  0.77670000  -0.00829999  0.06352501  1
  H  H308  1  0.70560002  -0.04323334  0.14985001  1
  H  H309  1  0.76366665  -0.00236665  0.03274998  1
  H  H310  1  0.79196666  -0.05160001  0.07520002  1
  H  H311  1  0.81136665  0.00720001  0.05924999  1
  H  H312  1  -0.03810002  -0.24813333  -0.04075000  1
  C  C313  1  0.00680000  -0.25096668  -0.04713002  1
  H  H314  1  0.01960001  -0.25393331  -0.01674999  1
  N  N315  1  0.01343332  -0.19540000  -0.07895999  1
  H  H316  1  0.03450003  -0.28710001  -0.06315001  1
  C  C317  1  0.06096665  -0.20543334  -0.12189499  1
  C  C318  1  -0.02983335  -0.13829999  -0.06476001  1
  N  N319  1  0.06620000  -0.15363334  -0.15288501  1
  O  O320  1  0.09633335  -0.25703333  -0.13181000  1
  C  C321  1  -0.02083334  -0.08816668  -0.09853000  1
  O  O322  1  -0.07126666  -0.13357002  -0.02648001  1
  C  C323  1  0.11309997  -0.16196666  -0.19928500  1
  C  C324  1  0.02509999  -0.09613335  -0.14081500  1
  N  N325  1  -0.05413333  -0.02490000  -0.09895500  1
  H  H326  1  0.13463333  -0.13266667  -0.20534998  1
  H  H327  1  0.14519999  -0.20320000  -0.19774998  1
  H  H328  1  0.09033335  -0.15546666  -0.22530000  1
  N  N329  1  0.02320000  -0.04139998  -0.16785001  1
  C  C330  1  -0.02596666  0.00076669  -0.14062500  1
  C  C331  1  -0.11003333  0.00829999  -0.06352501  1
  H  H332  1  -0.03893335  0.04323334  -0.14985001  1
  H  H333  1  -0.09699999  0.00236665  -0.03274998  1
  H  H334  1  -0.12530000  0.05160001  -0.07520002  1
  H  H335  1  -0.14469999  -0.00720001  -0.05924999  1
  H  H336  1  0.70476668  0.24813333  0.54075000  1
  C  C337  1  0.65986667  0.25096668  0.54713002  1
  H  H338  1  0.64706666  0.25393331  0.51674999  1
  N  N339  1  0.65323335  0.19540000  0.57895999  1
  H  H340  1  0.63216664  0.28710001  0.56315001  1
  C  C341  1  0.60570002  0.20543334  0.62189499  1
  C  C342  1  0.69650001  0.13829999  0.56476001  1
  N  N343  1  0.60046667  0.15363334  0.65288501  1
  O  O344  1  0.57033332  0.25703333  0.63181000  1
  C  C345  1  0.68750001  0.08816668  0.59853000  1
  O  O346  1  0.73793333  0.13357002  0.52648001  1
  C  C347  1  0.55356669  0.16196666  0.69928500  1
  C  C348  1  0.64156668  0.09613335  0.64081500  1
  N  N349  1  0.72080000  0.02490000  0.59895500  1
  H  H350  1  0.53203334  0.13266667  0.70534998  1
  H  H351  1  0.52146668  0.20320000  0.69774998  1
  H  H352  1  0.57633332  0.15546666  0.72530000  1
  N  N353  1  0.64346666  0.04139998  0.66785001  1
  C  C354  1  0.69263333  -0.00076669  0.64062500  1
  C  C355  1  0.77670000  -0.00829999  0.56352501  1
  H  H356  1  0.70560002  -0.04323334  0.64985001  1
  H  H357  1  0.76366665  -0.00236665  0.53274998  1
  H  H358  1  0.79196666  -0.05160001  0.57520002  1
  H  H359  1  0.81136665  0.00720001  0.55924999  1
  H  H360  1  -0.03810002  -0.24813333  0.45925000  1
  C  C361  1  0.00680000  -0.25096668  0.45286998  1
  H  H362  1  0.01960001  -0.25393331  0.48325001  1
  N  N363  1  0.01343332  -0.19540000  0.42104001  1
  H  H364  1  0.03450003  -0.28710001  0.43684999  1
  C  C365  1  0.06096665  -0.20543334  0.37810501  1
  C  C366  1  -0.02983335  -0.13829999  0.43523999  1
  N  N367  1  0.06620000  -0.15363334  0.34711499  1
  O  O368  1  0.09633335  -0.25703333  0.36819000  1
  C  C369  1  -0.02083334  -0.08816668  0.40147000  1
  O  O370  1  -0.07126666  -0.13357002  0.47351999  1
  C  C371  1  0.11309997  -0.16196666  0.30071500  1
  C  C372  1  0.02509999  -0.09613335  0.35918500  1
  N  N373  1  -0.05413333  -0.02490000  0.40104500  1
  H  H374  1  0.13463333  -0.13266667  0.29465002  1
  H  H375  1  0.14519999  -0.20320000  0.30225002  1
  H  H376  1  0.09033335  -0.15546666  0.27470000  1
  N  N377  1  0.02320000  -0.04139998  0.33214999  1
  C  C378  1  -0.02596666  0.00076669  0.35937500  1
  C  C379  1  -0.11003333  0.00829999  0.43647499  1
  H  H380  1  -0.03893335  0.04323334  0.35014999  1
  H  H381  1  -0.09699999  0.00236665  0.46725002  1
  H  H382  1  -0.12530000  0.05160001  0.42479998  1
  H  H383  1  -0.14469999  -0.00720001  0.44075001  1
  H  H384  1  0.70476668  0.58146666  0.04075000  1
  C  C385  1  0.65986667  0.58430001  0.04713002  1
  H  H386  1  0.64706666  0.58726665  0.01674999  1
  N  N387  1  0.65323335  0.52873334  0.07895999  1
  H  H388  1  0.63216664  0.62043334  0.06315001  1
  C  C389  1  0.60570002  0.53876667  0.12189499  1
  C  C390  1  0.69650001  0.47163333  0.06476001  1
  N  N391  1  0.60046667  0.48696668  0.15288501  1
  O  O392  1  0.57033332  0.59036666  0.13181000  1
  C  C393  1  0.68750001  0.42150002  0.09853000  1
  O  O394  1  0.73793333  0.46690335  0.02648001  1
  C  C395  1  0.55356669  0.49529999  0.19928500  1
  C  C396  1  0.64156668  0.42946668  0.14081500  1
  N  N397  1  0.72080000  0.35823333  0.09895500  1
  H  H398  1  0.53203334  0.46600000  0.20534998  1
  H  H399  1  0.52146668  0.53653333  0.19774998  1
  H  H400  1  0.57633332  0.48880000  0.22530000  1
  N  N401  1  0.64346666  0.37473331  0.16785001  1
  C  C402  1  0.69263333  0.33256664  0.14062500  1
  C  C403  1  0.77670000  0.32503335  0.06352501  1
  H  H404  1  0.70560002  0.29010000  0.14985001  1
  H  H405  1  0.76366665  0.33096669  0.03274998  1
  H  H406  1  0.79196666  0.28173332  0.07520002  1
  H  H407  1  0.81136665  0.34053334  0.05924999  1
  H  H408  1  -0.03810002  0.08520000  -0.04075000  1
  C  C409  1  0.00680000  0.08236665  -0.04713002  1
  H  H410  1  0.01960001  0.07940002  -0.01674999  1
  N  N411  1  0.01343332  0.13793333  -0.07895999  1
  H  H412  1  0.03450003  0.04623332  -0.06315001  1
  C  C413  1  0.06096665  0.12789999  -0.12189499  1
  C  C414  1  -0.02983335  0.19503334  -0.06476001  1
  N  N415  1  0.06620000  0.17969999  -0.15288501  1
  O  O416  1  0.09633335  0.07630000  -0.13181000  1
  C  C417  1  -0.02083334  0.24516665  -0.09853000  1
  O  O418  1  -0.07126666  0.19976331  -0.02648001  1
  C  C419  1  0.11309997  0.17136668  -0.19928500  1
  C  C420  1  0.02509999  0.23719999  -0.14081500  1
  N  N421  1  -0.05413333  0.30843333  -0.09895500  1
  H  H422  1  0.13463333  0.20066666  -0.20534998  1
  H  H423  1  0.14519999  0.13013334  -0.19774998  1
  H  H424  1  0.09033335  0.17786667  -0.22530000  1
  N  N425  1  0.02320000  0.29193336  -0.16785001  1
  C  C426  1  -0.02596666  0.33410002  -0.14062500  1
  C  C427  1  -0.11003333  0.34163332  -0.06352501  1
  H  H428  1  -0.03893335  0.37656667  -0.14985001  1
  H  H429  1  -0.09699999  0.33569998  -0.03274998  1
  H  H430  1  -0.12530000  0.38493334  -0.07520002  1
  H  H431  1  -0.14469999  0.32613332  -0.05924999  1
  H  H432  1  0.70476668  0.58146666  0.54075000  1
  C  C433  1  0.65986667  0.58430001  0.54713002  1
  H  H434  1  0.64706666  0.58726665  0.51674999  1
  N  N435  1  0.65323335  0.52873334  0.57895999  1
  H  H436  1  0.63216664  0.62043334  0.56315001  1
  C  C437  1  0.60570002  0.53876667  0.62189499  1
  C  C438  1  0.69650001  0.47163333  0.56476001  1
  N  N439  1  0.60046667  0.48696668  0.65288501  1
  O  O440  1  0.57033332  0.59036666  0.63181000  1
  C  C441  1  0.68750001  0.42150002  0.59853000  1
  O  O442  1  0.73793333  0.46690335  0.52648001  1
  C  C443  1  0.55356669  0.49529999  0.69928500  1
  C  C444  1  0.64156668  0.42946668  0.64081500  1
  N  N445  1  0.72080000  0.35823333  0.59895500  1
  H  H446  1  0.53203334  0.46600000  0.70534998  1
  H  H447  1  0.52146668  0.53653333  0.69774998  1
  H  H448  1  0.57633332  0.48880000  0.72530000  1
  N  N449  1  0.64346666  0.37473331  0.66785001  1
  C  C450  1  0.69263333  0.33256664  0.64062500  1
  C  C451  1  0.77670000  0.32503335  0.56352501  1
  H  H452  1  0.70560002  0.29010000  0.64985001  1
  H  H453  1  0.76366665  0.33096669  0.53274998  1
  H  H454  1  0.79196666  0.28173332  0.57520002  1
  H  H455  1  0.81136665  0.34053334  0.55924999  1
  H  H456  1  -0.03810002  0.08520000  0.45925000  1
  C  C457  1  0.00680000  0.08236665  0.45286998  1
  H  H458  1  0.01960001  0.07940002  0.48325001  1
  N  N459  1  0.01343332  0.13793333  0.42104001  1
  H  H460  1  0.03450003  0.04623332  0.43684999  1
  C  C461  1  0.06096665  0.12789999  0.37810501  1
  C  C462  1  -0.02983335  0.19503334  0.43523999  1
  N  N463  1  0.06620000  0.17969999  0.34711499  1
  O  O464  1  0.09633335  0.07630000  0.36819000  1
  C  C465  1  -0.02083334  0.24516665  0.40147000  1
  O  O466  1  -0.07126666  0.19976331  0.47351999  1
  C  C467  1  0.11309997  0.17136668  0.30071500  1
  C  C468  1  0.02509999  0.23719999  0.35918500  1
  N  N469  1  -0.05413333  0.30843333  0.40104500  1
  H  H470  1  0.13463333  0.20066666  0.29465002  1
  H  H471  1  0.14519999  0.13013334  0.30225002  1
  H  H472  1  0.09033335  0.17786667  0.27470000  1
  N  N473  1  0.02320000  0.29193336  0.33214999  1
  C  C474  1  -0.02596666  0.33410002  0.35937500  1
  C  C475  1  -0.11003333  0.34163332  0.43647499  1
  H  H476  1  -0.03893335  0.37656667  0.35014999  1
  H  H477  1  -0.09699999  0.33569998  0.46725002  1
  H  H478  1  -0.12530000  0.38493334  0.42479998  1
  H  H479  1  -0.14469999  0.32613332  0.44075001  1
  H  H480  1  0.70476668  0.91480000  0.04075000  1
  C  C481  1  0.65986667  0.91763335  0.04713002  1
  H  H482  1  0.64706666  0.92059998  0.01674999  1
  N  N483  1  0.65323335  0.86206667  0.07895999  1
  H  H484  1  0.63216664  0.95376668  0.06315001  1
  C  C485  1  0.60570002  0.87210001  0.12189499  1
  C  C486  1  0.69650001  0.80496666  0.06476001  1
  N  N487  1  0.60046667  0.82030001  0.15288501  1
  O  O488  1  0.57033332  0.92370000  0.13181000  1
  C  C489  1  0.68750001  0.75483335  0.09853000  1
  O  O490  1  0.73793333  0.80023669  0.02648001  1
  C  C491  1  0.55356669  0.82863332  0.19928500  1
  C  C492  1  0.64156668  0.76280001  0.14081500  1
  N  N493  1  0.72080000  0.69156667  0.09895500  1
  H  H494  1  0.53203334  0.79933334  0.20534998  1
  H  H495  1  0.52146668  0.86986666  0.19774998  1
  H  H496  1  0.57633332  0.82213333  0.22530000  1
  N  N497  1  0.64346666  0.70806664  0.16785001  1
  C  C498  1  0.69263333  0.66589998  0.14062500  1
  C  C499  1  0.77670000  0.65836668  0.06352501  1
  H  H500  1  0.70560002  0.62343333  0.14985001  1
  H  H501  1  0.76366665  0.66430002  0.03274998  1
  H  H502  1  0.79196666  0.61506666  0.07520002  1
  H  H503  1  0.81136665  0.67386668  0.05924999  1
  H  H504  1  -0.03810002  0.41853334  -0.04075000  1
  C  C505  1  0.00680000  0.41569999  -0.04713002  1
  H  H506  1  0.01960001  0.41273335  -0.01674999  1
  N  N507  1  0.01343332  0.47126666  -0.07895999  1
  H  H508  1  0.03450003  0.37956666  -0.06315001  1
  C  C509  1  0.06096665  0.46123333  -0.12189499  1
  C  C510  1  -0.02983335  0.52836667  -0.06476001  1
  N  N511  1  0.06620000  0.51303332  -0.15288501  1
  O  O512  1  0.09633335  0.40963334  -0.13181000  1
  C  C513  1  -0.02083334  0.57849998  -0.09853000  1
  O  O514  1  -0.07126666  0.53309665  -0.02648001  1
  C  C515  1  0.11309997  0.50470001  -0.19928500  1
  C  C516  1  0.02509999  0.57053332  -0.14081500  1
  N  N517  1  -0.05413333  0.64176667  -0.09895500  1
  H  H518  1  0.13463333  0.53400000  -0.20534998  1
  H  H519  1  0.14519999  0.46346667  -0.19774998  1
  H  H520  1  0.09033335  0.51120000  -0.22530000  1
  N  N521  1  0.02320000  0.62526669  -0.16785001  1
  C  C522  1  -0.02596666  0.66743336  -0.14062500  1
  C  C523  1  -0.11003333  0.67496665  -0.06352501  1
  H  H524  1  -0.03893335  0.70990000  -0.14985001  1
  H  H525  1  -0.09699999  0.66903331  -0.03274998  1
  H  H526  1  -0.12530000  0.71826668  -0.07520002  1
  H  H527  1  -0.14469999  0.65946666  -0.05924999  1
  H  H528  1  0.70476668  0.91480000  0.54075000  1
  C  C529  1  0.65986667  0.91763335  0.54713002  1
  H  H530  1  0.64706666  0.92059998  0.51674999  1
  N  N531  1  0.65323335  0.86206667  0.57895999  1
  H  H532  1  0.63216664  0.95376668  0.56315001  1
  C  C533  1  0.60570002  0.87210001  0.62189499  1
  C  C534  1  0.69650001  0.80496666  0.56476001  1
  N  N535  1  0.60046667  0.82030001  0.65288501  1
  O  O536  1  0.57033332  0.92370000  0.63181000  1
  C  C537  1  0.68750001  0.75483335  0.59853000  1
  O  O538  1  0.73793333  0.80023669  0.52648001  1
  C  C539  1  0.55356669  0.82863332  0.69928500  1
  C  C540  1  0.64156668  0.76280001  0.64081500  1
  N  N541  1  0.72080000  0.69156667  0.59895500  1
  H  H542  1  0.53203334  0.79933334  0.70534998  1
  H  H543  1  0.52146668  0.86986666  0.69774998  1
  H  H544  1  0.57633332  0.82213333  0.72530000  1
  N  N545  1  0.64346666  0.70806664  0.66785001  1
  C  C546  1  0.69263333  0.66589998  0.64062500  1
  C  C547  1  0.77670000  0.65836668  0.56352501  1
  H  H548  1  0.70560002  0.62343333  0.64985001  1
  H  H549  1  0.76366665  0.66430002  0.53274998  1
  H  H550  1  0.79196666  0.61506666  0.57520002  1
  H  H551  1  0.81136665  0.67386668  0.55924999  1
  H  H552  1  -0.03810002  0.41853334  0.45925000  1
  C  C553  1  0.00680000  0.41569999  0.45286998  1
  H  H554  1  0.01960001  0.41273335  0.48325001  1
  N  N555  1  0.01343332  0.47126666  0.42104001  1
  H  H556  1  0.03450003  0.37956666  0.43684999  1
  C  C557  1  0.06096665  0.46123333  0.37810501  1
  C  C558  1  -0.02983335  0.52836667  0.43523999  1
  N  N559  1  0.06620000  0.51303332  0.34711499  1
  O  O560  1  0.09633335  0.40963334  0.36819000  1
  C  C561  1  -0.02083334  0.57849998  0.40147000  1
  O  O562  1  -0.07126666  0.53309665  0.47351999  1
  C  C563  1  0.11309997  0.50470001  0.30071500  1
  C  C564  1  0.02509999  0.57053332  0.35918500  1
  N  N565  1  -0.05413333  0.64176667  0.40104500  1
  H  H566  1  0.13463333  0.53400000  0.29465002  1
  H  H567  1  0.14519999  0.46346667  0.30225002  1
  H  H568  1  0.09033335  0.51120000  0.27470000  1
  N  N569  1  0.02320000  0.62526669  0.33214999  1
  C  C570  1  -0.02596666  0.66743336  0.35937500  1
  C  C571  1  -0.11003333  0.67496665  0.43647499  1
  H  H572  1  -0.03893335  0.70990000  0.35014999  1
  H  H573  1  -0.09699999  0.66903331  0.46725002  1
  H  H574  1  -0.12530000  0.71826668  0.42479998  1
  H  H575  1  -0.14469999  0.65946666  0.44075001  1
  H  H576  1  1.03810002  0.24813333  0.04075000  1
  C  C577  1  0.99320000  0.25096668  0.04713002  1
  H  H578  1  0.98039999  0.25393331  0.01674999  1
  N  N579  1  0.98656668  0.19540000  0.07895999  1
  H  H580  1  0.96549997  0.28710001  0.06315001  1
  C  C581  1  0.93903335  0.20543334  0.12189499  1
  C  C582  1  1.02983335  0.13829999  0.06476001  1
  N  N583  1  0.93380000  0.15363334  0.15288501  1
  O  O584  1  0.90366665  0.25703333  0.13181000  1
  C  C585  1  1.02083334  0.08816668  0.09853000  1
  O  O586  1  1.07126666  0.13357002  0.02648001  1
  C  C587  1  0.88690003  0.16196666  0.19928500  1
  C  C588  1  0.97490001  0.09613335  0.14081500  1
  N  N589  1  1.05413333  0.02490000  0.09895500  1
  H  H590  1  0.86536667  0.13266667  0.20534998  1
  H  H591  1  0.85480001  0.20320000  0.19774998  1
  H  H592  1  0.90966665  0.15546666  0.22530000  1
  N  N593  1  0.97680000  0.04139998  0.16785001  1
  C  C594  1  1.02596666  -0.00076669  0.14062500  1
  C  C595  1  1.11003333  -0.00829999  0.06352501  1
  H  H596  1  1.03893335  -0.04323334  0.14985001  1
  H  H597  1  1.09699999  -0.00236665  0.03274998  1
  H  H598  1  1.12530000  -0.05160001  0.07520002  1
  H  H599  1  1.14469999  0.00720001  0.05924999  1
  H  H600  1  0.29523332  -0.24813333  -0.04075000  1
  C  C601  1  0.34013333  -0.25096668  -0.04713002  1
  H  H602  1  0.35293334  -0.25393331  -0.01674999  1
  N  N603  1  0.34676665  -0.19540000  -0.07895999  1
  H  H604  1  0.36783336  -0.28710001  -0.06315001  1
  C  C605  1  0.39429998  -0.20543334  -0.12189499  1
  C  C606  1  0.30349999  -0.13829999  -0.06476001  1
  N  N607  1  0.39953333  -0.15363334  -0.15288501  1
  O  O608  1  0.42966668  -0.25703333  -0.13181000  1
  C  C609  1  0.31249999  -0.08816668  -0.09853000  1
  O  O610  1  0.26206667  -0.13357002  -0.02648001  1
  C  C611  1  0.44643331  -0.16196666  -0.19928500  1
  C  C612  1  0.35843332  -0.09613335  -0.14081500  1
  N  N613  1  0.27920000  -0.02490000  -0.09895500  1
  H  H614  1  0.46796666  -0.13266667  -0.20534998  1
  H  H615  1  0.47853332  -0.20320000  -0.19774998  1
  H  H616  1  0.42366668  -0.15546666  -0.22530000  1
  N  N617  1  0.35653334  -0.04139998  -0.16785001  1
  C  C618  1  0.30736667  0.00076669  -0.14062500  1
  C  C619  1  0.22330000  0.00829999  -0.06352501  1
  H  H620  1  0.29439998  0.04323334  -0.14985001  1
  H  H621  1  0.23633335  0.00236665  -0.03274998  1
  H  H622  1  0.20803334  0.05160001  -0.07520002  1
  H  H623  1  0.18863335  -0.00720001  -0.05924999  1
  H  H624  1  1.03810002  0.24813333  0.54075000  1
  C  C625  1  0.99320000  0.25096668  0.54713002  1
  H  H626  1  0.98039999  0.25393331  0.51674999  1
  N  N627  1  0.98656668  0.19540000  0.57895999  1
  H  H628  1  0.96549997  0.28710001  0.56315001  1
  C  C629  1  0.93903335  0.20543334  0.62189499  1
  C  C630  1  1.02983335  0.13829999  0.56476001  1
  N  N631  1  0.93380000  0.15363334  0.65288501  1
  O  O632  1  0.90366665  0.25703333  0.63181000  1
  C  C633  1  1.02083334  0.08816668  0.59853000  1
  O  O634  1  1.07126666  0.13357002  0.52648001  1
  C  C635  1  0.88690003  0.16196666  0.69928500  1
  C  C636  1  0.97490001  0.09613335  0.64081500  1
  N  N637  1  1.05413333  0.02490000  0.59895500  1
  H  H638  1  0.86536667  0.13266667  0.70534998  1
  H  H639  1  0.85480001  0.20320000  0.69774998  1
  H  H640  1  0.90966665  0.15546666  0.72530000  1
  N  N641  1  0.97680000  0.04139998  0.66785001  1
  C  C642  1  1.02596666  -0.00076669  0.64062500  1
  C  C643  1  1.11003333  -0.00829999  0.56352501  1
  H  H644  1  1.03893335  -0.04323334  0.64985001  1
  H  H645  1  1.09699999  -0.00236665  0.53274998  1
  H  H646  1  1.12530000  -0.05160001  0.57520002  1
  H  H647  1  1.14469999  0.00720001  0.55924999  1
  H  H648  1  0.29523332  -0.24813333  0.45925000  1
  C  C649  1  0.34013333  -0.25096668  0.45286998  1
  H  H650  1  0.35293334  -0.25393331  0.48325001  1
  N  N651  1  0.34676665  -0.19540000  0.42104001  1
  H  H652  1  0.36783336  -0.28710001  0.43684999  1
  C  C653  1  0.39429998  -0.20543334  0.37810501  1
  C  C654  1  0.30349999  -0.13829999  0.43523999  1
  N  N655  1  0.39953333  -0.15363334  0.34711499  1
  O  O656  1  0.42966668  -0.25703333  0.36819000  1
  C  C657  1  0.31249999  -0.08816668  0.40147000  1
  O  O658  1  0.26206667  -0.13357002  0.47351999  1
  C  C659  1  0.44643331  -0.16196666  0.30071500  1
  C  C660  1  0.35843332  -0.09613335  0.35918500  1
  N  N661  1  0.27920000  -0.02490000  0.40104500  1
  H  H662  1  0.46796666  -0.13266667  0.29465002  1
  H  H663  1  0.47853332  -0.20320000  0.30225002  1
  H  H664  1  0.42366668  -0.15546666  0.27470000  1
  N  N665  1  0.35653334  -0.04139998  0.33214999  1
  C  C666  1  0.30736667  0.00076669  0.35937500  1
  C  C667  1  0.22330000  0.00829999  0.43647499  1
  H  H668  1  0.29439998  0.04323334  0.35014999  1
  H  H669  1  0.23633335  0.00236665  0.46725002  1
  H  H670  1  0.20803334  0.05160001  0.42479998  1
  H  H671  1  0.18863335  -0.00720001  0.44075001  1
  H  H672  1  1.03810002  0.58146666  0.04075000  1
  C  C673  1  0.99320000  0.58430001  0.04713002  1
  H  H674  1  0.98039999  0.58726665  0.01674999  1
  N  N675  1  0.98656668  0.52873334  0.07895999  1
  H  H676  1  0.96549997  0.62043334  0.06315001  1
  C  C677  1  0.93903335  0.53876667  0.12189499  1
  C  C678  1  1.02983335  0.47163333  0.06476001  1
  N  N679  1  0.93380000  0.48696668  0.15288501  1
  O  O680  1  0.90366665  0.59036666  0.13181000  1
  C  C681  1  1.02083334  0.42150002  0.09853000  1
  O  O682  1  1.07126666  0.46690335  0.02648001  1
  C  C683  1  0.88690003  0.49529999  0.19928500  1
  C  C684  1  0.97490001  0.42946668  0.14081500  1
  N  N685  1  1.05413333  0.35823333  0.09895500  1
  H  H686  1  0.86536667  0.46600000  0.20534998  1
  H  H687  1  0.85480001  0.53653333  0.19774998  1
  H  H688  1  0.90966665  0.48880000  0.22530000  1
  N  N689  1  0.97680000  0.37473331  0.16785001  1
  C  C690  1  1.02596666  0.33256664  0.14062500  1
  C  C691  1  1.11003333  0.32503335  0.06352501  1
  H  H692  1  1.03893335  0.29010000  0.14985001  1
  H  H693  1  1.09699999  0.33096669  0.03274998  1
  H  H694  1  1.12530000  0.28173332  0.07520002  1
  H  H695  1  1.14469999  0.34053334  0.05924999  1
  H  H696  1  0.29523332  0.08520000  -0.04075000  1
  C  C697  1  0.34013333  0.08236665  -0.04713002  1
  H  H698  1  0.35293334  0.07940002  -0.01674999  1
  N  N699  1  0.34676665  0.13793333  -0.07895999  1
  H  H700  1  0.36783336  0.04623332  -0.06315001  1
  C  C701  1  0.39429998  0.12789999  -0.12189499  1
  C  C702  1  0.30349999  0.19503334  -0.06476001  1
  N  N703  1  0.39953333  0.17969999  -0.15288501  1
  O  O704  1  0.42966668  0.07630000  -0.13181000  1
  C  C705  1  0.31249999  0.24516665  -0.09853000  1
  O  O706  1  0.26206667  0.19976331  -0.02648001  1
  C  C707  1  0.44643331  0.17136668  -0.19928500  1
  C  C708  1  0.35843332  0.23719999  -0.14081500  1
  N  N709  1  0.27920000  0.30843333  -0.09895500  1
  H  H710  1  0.46796666  0.20066666  -0.20534998  1
  H  H711  1  0.47853332  0.13013334  -0.19774998  1
  H  H712  1  0.42366668  0.17786667  -0.22530000  1
  N  N713  1  0.35653334  0.29193336  -0.16785001  1
  C  C714  1  0.30736667  0.33410002  -0.14062500  1
  C  C715  1  0.22330000  0.34163332  -0.06352501  1
  H  H716  1  0.29439998  0.37656667  -0.14985001  1
  H  H717  1  0.23633335  0.33569998  -0.03274998  1
  H  H718  1  0.20803334  0.38493334  -0.07520002  1
  H  H719  1  0.18863335  0.32613332  -0.05924999  1
  H  H720  1  1.03810002  0.58146666  0.54075000  1
  C  C721  1  0.99320000  0.58430001  0.54713002  1
  H  H722  1  0.98039999  0.58726665  0.51674999  1
  N  N723  1  0.98656668  0.52873334  0.57895999  1
  H  H724  1  0.96549997  0.62043334  0.56315001  1
  C  C725  1  0.93903335  0.53876667  0.62189499  1
  C  C726  1  1.02983335  0.47163333  0.56476001  1
  N  N727  1  0.93380000  0.48696668  0.65288501  1
  O  O728  1  0.90366665  0.59036666  0.63181000  1
  C  C729  1  1.02083334  0.42150002  0.59853000  1
  O  O730  1  1.07126666  0.46690335  0.52648001  1
  C  C731  1  0.88690003  0.49529999  0.69928500  1
  C  C732  1  0.97490001  0.42946668  0.64081500  1
  N  N733  1  1.05413333  0.35823333  0.59895500  1
  H  H734  1  0.86536667  0.46600000  0.70534998  1
  H  H735  1  0.85480001  0.53653333  0.69774998  1
  H  H736  1  0.90966665  0.48880000  0.72530000  1
  N  N737  1  0.97680000  0.37473331  0.66785001  1
  C  C738  1  1.02596666  0.33256664  0.64062500  1
  C  C739  1  1.11003333  0.32503335  0.56352501  1
  H  H740  1  1.03893335  0.29010000  0.64985001  1
  H  H741  1  1.09699999  0.33096669  0.53274998  1
  H  H742  1  1.12530000  0.28173332  0.57520002  1
  H  H743  1  1.14469999  0.34053334  0.55924999  1
  H  H744  1  0.29523332  0.08520000  0.45925000  1
  C  C745  1  0.34013333  0.08236665  0.45286998  1
  H  H746  1  0.35293334  0.07940002  0.48325001  1
  N  N747  1  0.34676665  0.13793333  0.42104001  1
  H  H748  1  0.36783336  0.04623332  0.43684999  1
  C  C749  1  0.39429998  0.12789999  0.37810501  1
  C  C750  1  0.30349999  0.19503334  0.43523999  1
  N  N751  1  0.39953333  0.17969999  0.34711499  1
  O  O752  1  0.42966668  0.07630000  0.36819000  1
  C  C753  1  0.31249999  0.24516665  0.40147000  1
  O  O754  1  0.26206667  0.19976331  0.47351999  1
  C  C755  1  0.44643331  0.17136668  0.30071500  1
  C  C756  1  0.35843332  0.23719999  0.35918500  1
  N  N757  1  0.27920000  0.30843333  0.40104500  1
  H  H758  1  0.46796666  0.20066666  0.29465002  1
  H  H759  1  0.47853332  0.13013334  0.30225002  1
  H  H760  1  0.42366668  0.17786667  0.27470000  1
  N  N761  1  0.35653334  0.29193336  0.33214999  1
  C  C762  1  0.30736667  0.33410002  0.35937500  1
  C  C763  1  0.22330000  0.34163332  0.43647499  1
  H  H764  1  0.29439998  0.37656667  0.35014999  1
  H  H765  1  0.23633335  0.33569998  0.46725002  1
  H  H766  1  0.20803334  0.38493334  0.42479998  1
  H  H767  1  0.18863335  0.32613332  0.44075001  1
  H  H768  1  1.03810002  0.91480000  0.04075000  1
  C  C769  1  0.99320000  0.91763335  0.04713002  1
  H  H770  1  0.98039999  0.92059998  0.01674999  1
  N  N771  1  0.98656668  0.86206667  0.07895999  1
  H  H772  1  0.96549997  0.95376668  0.06315001  1
  C  C773  1  0.93903335  0.87210001  0.12189499  1
  C  C774  1  1.02983335  0.80496666  0.06476001  1
  N  N775  1  0.93380000  0.82030001  0.15288501  1
  O  O776  1  0.90366665  0.92370000  0.13181000  1
  C  C777  1  1.02083334  0.75483335  0.09853000  1
  O  O778  1  1.07126666  0.80023669  0.02648001  1
  C  C779  1  0.88690003  0.82863332  0.19928500  1
  C  C780  1  0.97490001  0.76280001  0.14081500  1
  N  N781  1  1.05413333  0.69156667  0.09895500  1
  H  H782  1  0.86536667  0.79933334  0.20534998  1
  H  H783  1  0.85480001  0.86986666  0.19774998  1
  H  H784  1  0.90966665  0.82213333  0.22530000  1
  N  N785  1  0.97680000  0.70806664  0.16785001  1
  C  C786  1  1.02596666  0.66589998  0.14062500  1
  C  C787  1  1.11003333  0.65836668  0.06352501  1
  H  H788  1  1.03893335  0.62343333  0.14985001  1
  H  H789  1  1.09699999  0.66430002  0.03274998  1
  H  H790  1  1.12530000  0.61506666  0.07520002  1
  H  H791  1  1.14469999  0.67386668  0.05924999  1
  H  H792  1  0.29523332  0.41853334  -0.04075000  1
  C  C793  1  0.34013333  0.41569999  -0.04713002  1
  H  H794  1  0.35293334  0.41273335  -0.01674999  1
  N  N795  1  0.34676665  0.47126666  -0.07895999  1
  H  H796  1  0.36783336  0.37956666  -0.06315001  1
  C  C797  1  0.39429998  0.46123333  -0.12189499  1
  C  C798  1  0.30349999  0.52836667  -0.06476001  1
  N  N799  1  0.39953333  0.51303332  -0.15288501  1
  O  O800  1  0.42966668  0.40963334  -0.13181000  1
  C  C801  1  0.31249999  0.57849998  -0.09853000  1
  O  O802  1  0.26206667  0.53309665  -0.02648001  1
  C  C803  1  0.44643331  0.50470001  -0.19928500  1
  C  C804  1  0.35843332  0.57053332  -0.14081500  1
  N  N805  1  0.27920000  0.64176667  -0.09895500  1
  H  H806  1  0.46796666  0.53400000  -0.20534998  1
  H  H807  1  0.47853332  0.46346667  -0.19774998  1
  H  H808  1  0.42366668  0.51120000  -0.22530000  1
  N  N809  1  0.35653334  0.62526669  -0.16785001  1
  C  C810  1  0.30736667  0.66743336  -0.14062500  1
  C  C811  1  0.22330000  0.67496665  -0.06352501  1
  H  H812  1  0.29439998  0.70990000  -0.14985001  1
  H  H813  1  0.23633335  0.66903331  -0.03274998  1
  H  H814  1  0.20803334  0.71826668  -0.07520002  1
  H  H815  1  0.18863335  0.65946666  -0.05924999  1
  H  H816  1  1.03810002  0.91480000  0.54075000  1
  C  C817  1  0.99320000  0.91763335  0.54713002  1
  H  H818  1  0.98039999  0.92059998  0.51674999  1
  N  N819  1  0.98656668  0.86206667  0.57895999  1
  H  H820  1  0.96549997  0.95376668  0.56315001  1
  C  C821  1  0.93903335  0.87210001  0.62189499  1
  C  C822  1  1.02983335  0.80496666  0.56476001  1
  N  N823  1  0.93380000  0.82030001  0.65288501  1
  O  O824  1  0.90366665  0.92370000  0.63181000  1
  C  C825  1  1.02083334  0.75483335  0.59853000  1
  O  O826  1  1.07126666  0.80023669  0.52648001  1
  C  C827  1  0.88690003  0.82863332  0.69928500  1
  C  C828  1  0.97490001  0.76280001  0.64081500  1
  N  N829  1  1.05413333  0.69156667  0.59895500  1
  H  H830  1  0.86536667  0.79933334  0.70534998  1
  H  H831  1  0.85480001  0.86986666  0.69774998  1
  H  H832  1  0.90966665  0.82213333  0.72530000  1
  N  N833  1  0.97680000  0.70806664  0.66785001  1
  C  C834  1  1.02596666  0.66589998  0.64062500  1
  C  C835  1  1.11003333  0.65836668  0.56352501  1
  H  H836  1  1.03893335  0.62343333  0.64985001  1
  H  H837  1  1.09699999  0.66430002  0.53274998  1
  H  H838  1  1.12530000  0.61506666  0.57520002  1
  H  H839  1  1.14469999  0.67386668  0.55924999  1
  H  H840  1  0.29523332  0.41853334  0.45925000  1
  C  C841  1  0.34013333  0.41569999  0.45286998  1
  H  H842  1  0.35293334  0.41273335  0.48325001  1
  N  N843  1  0.34676665  0.47126666  0.42104001  1
  H  H844  1  0.36783336  0.37956666  0.43684999  1
  C  C845  1  0.39429998  0.46123333  0.37810501  1
  C  C846  1  0.30349999  0.52836667  0.43523999  1
  N  N847  1  0.39953333  0.51303332  0.34711499  1
  O  O848  1  0.42966668  0.40963334  0.36819000  1
  C  C849  1  0.31249999  0.57849998  0.40147000  1
  O  O850  1  0.26206667  0.53309665  0.47351999  1
  C  C851  1  0.44643331  0.50470001  0.30071500  1
  C  C852  1  0.35843332  0.57053332  0.35918500  1
  N  N853  1  0.27920000  0.64176667  0.40104500  1
  H  H854  1  0.46796666  0.53400000  0.29465002  1
  H  H855  1  0.47853332  0.46346667  0.30225002  1
  H  H856  1  0.42366668  0.51120000  0.27470000  1
  N  N857  1  0.35653334  0.62526669  0.33214999  1
  C  C858  1  0.30736667  0.66743336  0.35937500  1
  C  C859  1  0.22330000  0.67496665  0.43647499  1
  H  H860  1  0.29439998  0.70990000  0.35014999  1
  H  H861  1  0.23633335  0.66903331  0.46725002  1
  H  H862  1  0.20803334  0.71826668  0.42479998  1
  H  H863  1  0.18863335  0.65946666  0.44075001  1
  H  H864  1  0.16006667  0.31363334  0.34700000  1
  C  C865  1  0.18673331  0.27256667  0.34345000  1
  C  C866  1  0.18459999  0.22013334  0.37596499  1
  C  C867  1  0.23693335  0.25006664  0.30513501  1
  C  C868  1  0.13976666  0.21820002  0.42360001  1
  N  N869  1  0.23043336  0.16799999  0.35912499  1
  N  N870  1  0.26143332  0.18766667  0.31632498  1
  C  C871  1  0.26773335  0.27779998  0.25924000  1
  O  O872  1  0.14510001  0.16150001  0.44346500  1
  O  O873  1  0.10216666  0.26396669  0.44185999  1
  H  H874  1  0.29466666  0.16099999  0.29644999  1
  O  O875  1  0.24263335  0.33820000  0.25166000  1
  O  O876  1  0.31356665  0.24593335  0.23138000  1
  H  H877  1  0.11866667  0.16233332  0.47050001  1
  H  H878  1  0.26800000  0.34933334  0.21749999  1
  H  H879  1  -0.16006667  -0.31363334  -0.34700000  1
  C  C880  1  -0.18673331  -0.27256667  -0.34345000  1
  C  C881  1  -0.18459999  -0.22013334  -0.37596499  1
  C  C882  1  -0.23693335  -0.25006664  -0.30513501  1
  C  C883  1  -0.13976666  -0.21820002  -0.42360001  1
  N  N884  1  -0.23043336  -0.16799999  -0.35912499  1
  N  N885  1  -0.26143332  -0.18766667  -0.31632498  1
  C  C886  1  -0.26773335  -0.27779998  -0.25924000  1
  O  O887  1  -0.14510001  -0.16150001  -0.44346500  1
  O  O888  1  -0.10216666  -0.26396669  -0.44185999  1
  H  H889  1  -0.29466666  -0.16099999  -0.29644999  1
  O  O890  1  -0.24263335  -0.33820000  -0.25166000  1
  O  O891  1  -0.31356665  -0.24593335  -0.23138000  1
  H  H892  1  -0.11866667  -0.16233332  -0.47050001  1
  H  H893  1  -0.26800000  -0.34933334  -0.21749999  1
  H  H894  1  0.16006667  0.31363334  0.84700000  1
  C  C895  1  0.18673331  0.27256667  0.84345000  1
  C  C896  1  0.18459999  0.22013334  0.87596499  1
  C  C897  1  0.23693335  0.25006664  0.80513501  1
  C  C898  1  0.13976666  0.21820002  0.92360001  1
  N  N899  1  0.23043336  0.16799999  0.85912499  1
  N  N900  1  0.26143332  0.18766667  0.81632498  1
  C  C901  1  0.26773335  0.27779998  0.75924000  1
  O  O902  1  0.14510001  0.16150001  0.94346500  1
  O  O903  1  0.10216666  0.26396669  0.94185999  1
  H  H904  1  0.29466666  0.16099999  0.79644999  1
  O  O905  1  0.24263335  0.33820000  0.75166000  1
  O  O906  1  0.31356665  0.24593335  0.73138000  1
  H  H907  1  0.11866667  0.16233332  0.97050001  1
  H  H908  1  0.26800000  0.34933334  0.71749999  1
  H  H909  1  -0.16006667  -0.31363334  0.15300000  1
  C  C910  1  -0.18673331  -0.27256667  0.15655000  1
  C  C911  1  -0.18459999  -0.22013334  0.12403501  1
  C  C912  1  -0.23693335  -0.25006664  0.19486499  1
  C  C913  1  -0.13976666  -0.21820002  0.07639999  1
  N  N914  1  -0.23043336  -0.16799999  0.14087501  1
  N  N915  1  -0.26143332  -0.18766667  0.18367502  1
  C  C916  1  -0.26773335  -0.27779998  0.24076000  1
  O  O917  1  -0.14510001  -0.16150001  0.05653500  1
  O  O918  1  -0.10216666  -0.26396669  0.05814001  1
  H  H919  1  -0.29466666  -0.16099999  0.20355001  1
  O  O920  1  -0.24263335  -0.33820000  0.24834000  1
  O  O921  1  -0.31356665  -0.24593335  0.26862000  1
  H  H922  1  -0.11866667  -0.16233332  0.02949999  1
  H  H923  1  -0.26800000  -0.34933334  0.28250001  1
  H  H924  1  0.16006667  0.64696667  0.34700000  1
  C  C925  1  0.18673331  0.60590001  0.34345000  1
  C  C926  1  0.18459999  0.55346667  0.37596499  1
  C  C927  1  0.23693335  0.58339998  0.30513501  1
  C  C928  1  0.13976666  0.55153335  0.42360001  1
  N  N929  1  0.23043336  0.50133332  0.35912499  1
  N  N930  1  0.26143332  0.52100000  0.31632498  1
  C  C931  1  0.26773335  0.61113332  0.25924000  1
  O  O932  1  0.14510001  0.49483335  0.44346500  1
  O  O933  1  0.10216666  0.59730002  0.44185999  1
  H  H934  1  0.29466666  0.49433332  0.29644999  1
  O  O935  1  0.24263335  0.67153334  0.25166000  1
  O  O936  1  0.31356665  0.57926668  0.23138000  1
  H  H937  1  0.11866667  0.49566665  0.47050001  1
  H  H938  1  0.26800000  0.68266668  0.21749999  1
  H  H939  1  -0.16006667  0.01969999  -0.34700000  1
  C  C940  1  -0.18673331  0.06076666  -0.34345000  1
  C  C941  1  -0.18459999  0.11319999  -0.37596499  1
  C  C942  1  -0.23693335  0.08326669  -0.30513501  1
  C  C943  1  -0.13976666  0.11513332  -0.42360001  1
  N  N944  1  -0.23043336  0.16533335  -0.35912499  1
  N  N945  1  -0.26143332  0.14566667  -0.31632498  1
  C  C946  1  -0.26773335  0.05553335  -0.25924000  1
  O  O947  1  -0.14510001  0.17183332  -0.44346500  1
  O  O948  1  -0.10216666  0.06936664  -0.44185999  1
  H  H949  1  -0.29466666  0.17233334  -0.29644999  1
  O  O950  1  -0.24263335  -0.00486667  -0.25166000  1
  O  O951  1  -0.31356665  0.08739998  -0.23138000  1
  H  H952  1  -0.11866667  0.17100002  -0.47050001  1
  H  H953  1  -0.26800000  -0.01600001  -0.21749999  1
  H  H954  1  0.16006667  0.64696667  0.84700000  1
  C  C955  1  0.18673331  0.60590001  0.84345000  1
  C  C956  1  0.18459999  0.55346667  0.87596499  1
  C  C957  1  0.23693335  0.58339998  0.80513501  1
  C  C958  1  0.13976666  0.55153335  0.92360001  1
  N  N959  1  0.23043336  0.50133332  0.85912499  1
  N  N960  1  0.26143332  0.52100000  0.81632498  1
  C  C961  1  0.26773335  0.61113332  0.75924000  1
  O  O962  1  0.14510001  0.49483335  0.94346500  1
  O  O963  1  0.10216666  0.59730002  0.94185999  1
  H  H964  1  0.29466666  0.49433332  0.79644999  1
  O  O965  1  0.24263335  0.67153334  0.75166000  1
  O  O966  1  0.31356665  0.57926668  0.73138000  1
  H  H967  1  0.11866667  0.49566665  0.97050001  1
  H  H968  1  0.26800000  0.68266668  0.71749999  1
  H  H969  1  -0.16006667  0.01969999  0.15300000  1
  C  C970  1  -0.18673331  0.06076666  0.15655000  1
  C  C971  1  -0.18459999  0.11319999  0.12403501  1
  C  C972  1  -0.23693335  0.08326669  0.19486499  1
  C  C973  1  -0.13976666  0.11513332  0.07639999  1
  N  N974  1  -0.23043336  0.16533335  0.14087501  1
  N  N975  1  -0.26143332  0.14566667  0.18367502  1
  C  C976  1  -0.26773335  0.05553335  0.24076000  1
  O  O977  1  -0.14510001  0.17183332  0.05653500  1
  O  O978  1  -0.10216666  0.06936664  0.05814001  1
  H  H979  1  -0.29466666  0.17233334  0.20355001  1
  O  O980  1  -0.24263335  -0.00486667  0.24834000  1
  O  O981  1  -0.31356665  0.08739998  0.26862000  1
  H  H982  1  -0.11866667  0.17100002  0.02949999  1
  H  H983  1  -0.26800000  -0.01600001  0.28250001  1
  H  H984  1  0.16006667  0.98030001  0.34700000  1
  C  C985  1  0.18673331  0.93923334  0.34345000  1
  C  C986  1  0.18459999  0.88680001  0.37596499  1
  C  C987  1  0.23693335  0.91673331  0.30513501  1
  C  C988  1  0.13976666  0.88486668  0.42360001  1
  N  N989  1  0.23043336  0.83466665  0.35912499  1
  N  N990  1  0.26143332  0.85433333  0.31632498  1
  C  C991  1  0.26773335  0.94446665  0.25924000  1
  O  O992  1  0.14510001  0.82816668  0.44346500  1
  O  O993  1  0.10216666  0.93063336  0.44185999  1
  H  H994  1  0.29466666  0.82766666  0.29644999  1
  O  O995  1  0.24263335  1.00486667  0.25166000  1
  O  O996  1  0.31356665  0.91260002  0.23138000  1
  H  H997  1  0.11866667  0.82899998  0.47050001  1
  H  H998  1  0.26800000  1.01600001  0.21749999  1
  H  H999  1  -0.16006667  0.35303333  -0.34700000  1
  C  C1000  1  -0.18673331  0.39409999  -0.34345000  1
  C  C1001  1  -0.18459999  0.44653333  -0.37596499  1
  C  C1002  1  -0.23693335  0.41660002  -0.30513501  1
  C  C1003  1  -0.13976666  0.44846665  -0.42360001  1
  N  N1004  1  -0.23043336  0.49866668  -0.35912499  1
  N  N1005  1  -0.26143332  0.47900000  -0.31632498  1
  C  C1006  1  -0.26773335  0.38886668  -0.25924000  1
  O  O1007  1  -0.14510001  0.50516665  -0.44346500  1
  O  O1008  1  -0.10216666  0.40269998  -0.44185999  1
  H  H1009  1  -0.29466666  0.50566668  -0.29644999  1
  O  O1010  1  -0.24263335  0.32846666  -0.25166000  1
  O  O1011  1  -0.31356665  0.42073332  -0.23138000  1
  H  H1012  1  -0.11866667  0.50433335  -0.47050001  1
  H  H1013  1  -0.26800000  0.31733332  -0.21749999  1
  H  H1014  1  0.16006667  0.98030001  0.84700000  1
  C  C1015  1  0.18673331  0.93923334  0.84345000  1
  C  C1016  1  0.18459999  0.88680001  0.87596499  1
  C  C1017  1  0.23693335  0.91673331  0.80513501  1
  C  C1018  1  0.13976666  0.88486668  0.92360001  1
  N  N1019  1  0.23043336  0.83466665  0.85912499  1
  N  N1020  1  0.26143332  0.85433333  0.81632498  1
  C  C1021  1  0.26773335  0.94446665  0.75924000  1
  O  O1022  1  0.14510001  0.82816668  0.94346500  1
  O  O1023  1  0.10216666  0.93063336  0.94185999  1
  H  H1024  1  0.29466666  0.82766666  0.79644999  1
  O  O1025  1  0.24263335  1.00486667  0.75166000  1
  O  O1026  1  0.31356665  0.91260002  0.73138000  1
  H  H1027  1  0.11866667  0.82899998  0.97050001  1
  H  H1028  1  0.26800000  1.01600001  0.71749999  1
  H  H1029  1  -0.16006667  0.35303333  0.15300000  1
  C  C1030  1  -0.18673331  0.39409999  0.15655000  1
  C  C1031  1  -0.18459999  0.44653333  0.12403501  1
  C  C1032  1  -0.23693335  0.41660002  0.19486499  1
  C  C1033  1  -0.13976666  0.44846665  0.07639999  1
  N  N1034  1  -0.23043336  0.49866668  0.14087501  1
  N  N1035  1  -0.26143332  0.47900000  0.18367502  1
  C  C1036  1  -0.26773335  0.38886668  0.24076000  1
  O  O1037  1  -0.14510001  0.50516665  0.05653500  1
  O  O1038  1  -0.10216666  0.40269998  0.05814001  1
  H  H1039  1  -0.29466666  0.50566668  0.20355001  1
  O  O1040  1  -0.24263335  0.32846666  0.24834000  1
  O  O1041  1  -0.31356665  0.42073332  0.26862000  1
  H  H1042  1  -0.11866667  0.50433335  0.02949999  1
  H  H1043  1  -0.26800000  0.31733332  0.28250001  1
  H  H1044  1  0.49340001  0.31363334  0.34700000  1
  C  C1045  1  0.52006664  0.27256667  0.34345000  1
  C  C1046  1  0.51793332  0.22013334  0.37596499  1
  C  C1047  1  0.57026669  0.25006664  0.30513501  1
  C  C1048  1  0.47309999  0.21820002  0.42360001  1
  N  N1049  1  0.56376669  0.16799999  0.35912499  1
  N  N1050  1  0.59476666  0.18766667  0.31632498  1
  C  C1051  1  0.60106669  0.27779998  0.25924000  1
  O  O1052  1  0.47843334  0.16150001  0.44346500  1
  O  O1053  1  0.43549999  0.26396669  0.44185999  1
  H  H1054  1  0.62800000  0.16099999  0.29644999  1
  O  O1055  1  0.57596669  0.33820000  0.25166000  1
  O  O1056  1  0.64689999  0.24593335  0.23138000  1
  H  H1057  1  0.45200001  0.16233332  0.47050001  1
  H  H1058  1  0.60133334  0.34933334  0.21749999  1
  H  H1059  1  0.17326666  -0.31363334  -0.34700000  1
  C  C1060  1  0.14660002  -0.27256667  -0.34345000  1
  C  C1061  1  0.14873335  -0.22013334  -0.37596499  1
  C  C1062  1  0.09639998  -0.25006664  -0.30513501  1
  C  C1063  1  0.19356667  -0.21820002  -0.42360001  1
  N  N1064  1  0.10289997  -0.16799999  -0.35912499  1
  N  N1065  1  0.07190001  -0.18766667  -0.31632498  1
  C  C1066  1  0.06559998  -0.27779998  -0.25924000  1
  O  O1067  1  0.18823332  -0.16150001  -0.44346500  1
  O  O1068  1  0.23116667  -0.26396669  -0.44185999  1
  H  H1069  1  0.03866667  -0.16099999  -0.29644999  1
  O  O1070  1  0.09069998  -0.33820000  -0.25166000  1
  O  O1071  1  0.01976668  -0.24593335  -0.23138000  1
  H  H1072  1  0.21466666  -0.16233332  -0.47050001  1
  H  H1073  1  0.06533333  -0.34933334  -0.21749999  1
  H  H1074  1  0.49340001  0.31363334  0.84700000  1
  C  C1075  1  0.52006664  0.27256667  0.84345000  1
  C  C1076  1  0.51793332  0.22013334  0.87596499  1
  C  C1077  1  0.57026669  0.25006664  0.80513501  1
  C  C1078  1  0.47309999  0.21820002  0.92360001  1
  N  N1079  1  0.56376669  0.16799999  0.85912499  1
  N  N1080  1  0.59476666  0.18766667  0.81632498  1
  C  C1081  1  0.60106669  0.27779998  0.75924000  1
  O  O1082  1  0.47843334  0.16150001  0.94346500  1
  O  O1083  1  0.43549999  0.26396669  0.94185999  1
  H  H1084  1  0.62800000  0.16099999  0.79644999  1
  O  O1085  1  0.57596669  0.33820000  0.75166000  1
  O  O1086  1  0.64689999  0.24593335  0.73138000  1
  H  H1087  1  0.45200001  0.16233332  0.97050001  1
  H  H1088  1  0.60133334  0.34933334  0.71749999  1
  H  H1089  1  0.17326666  -0.31363334  0.15300000  1
  C  C1090  1  0.14660002  -0.27256667  0.15655000  1
  C  C1091  1  0.14873335  -0.22013334  0.12403501  1
  C  C1092  1  0.09639998  -0.25006664  0.19486499  1
  C  C1093  1  0.19356667  -0.21820002  0.07639999  1
  N  N1094  1  0.10289997  -0.16799999  0.14087501  1
  N  N1095  1  0.07190001  -0.18766667  0.18367502  1
  C  C1096  1  0.06559998  -0.27779998  0.24076000  1
  O  O1097  1  0.18823332  -0.16150001  0.05653500  1
  O  O1098  1  0.23116667  -0.26396669  0.05814001  1
  H  H1099  1  0.03866667  -0.16099999  0.20355001  1
  O  O1100  1  0.09069998  -0.33820000  0.24834000  1
  O  O1101  1  0.01976668  -0.24593335  0.26862000  1
  H  H1102  1  0.21466666  -0.16233332  0.02949999  1
  H  H1103  1  0.06533333  -0.34933334  0.28250001  1
  H  H1104  1  0.49340001  0.64696667  0.34700000  1
  C  C1105  1  0.52006664  0.60590001  0.34345000  1
  C  C1106  1  0.51793332  0.55346667  0.37596499  1
  C  C1107  1  0.57026669  0.58339998  0.30513501  1
  C  C1108  1  0.47309999  0.55153335  0.42360001  1
  N  N1109  1  0.56376669  0.50133332  0.35912499  1
  N  N1110  1  0.59476666  0.52100000  0.31632498  1
  C  C1111  1  0.60106669  0.61113332  0.25924000  1
  O  O1112  1  0.47843334  0.49483335  0.44346500  1
  O  O1113  1  0.43549999  0.59730002  0.44185999  1
  H  H1114  1  0.62800000  0.49433332  0.29644999  1
  O  O1115  1  0.57596669  0.67153334  0.25166000  1
  O  O1116  1  0.64689999  0.57926668  0.23138000  1
  H  H1117  1  0.45200001  0.49566665  0.47050001  1
  H  H1118  1  0.60133334  0.68266668  0.21749999  1
  H  H1119  1  0.17326666  0.01969999  -0.34700000  1
  C  C1120  1  0.14660002  0.06076666  -0.34345000  1
  C  C1121  1  0.14873335  0.11319999  -0.37596499  1
  C  C1122  1  0.09639998  0.08326669  -0.30513501  1
  C  C1123  1  0.19356667  0.11513332  -0.42360001  1
  N  N1124  1  0.10289997  0.16533335  -0.35912499  1
  N  N1125  1  0.07190001  0.14566667  -0.31632498  1
  C  C1126  1  0.06559998  0.05553335  -0.25924000  1
  O  O1127  1  0.18823332  0.17183332  -0.44346500  1
  O  O1128  1  0.23116667  0.06936664  -0.44185999  1
  H  H1129  1  0.03866667  0.17233334  -0.29644999  1
  O  O1130  1  0.09069998  -0.00486667  -0.25166000  1
  O  O1131  1  0.01976668  0.08739998  -0.23138000  1
  H  H1132  1  0.21466666  0.17100002  -0.47050001  1
  H  H1133  1  0.06533333  -0.01600001  -0.21749999  1
  H  H1134  1  0.49340001  0.64696667  0.84700000  1
  C  C1135  1  0.52006664  0.60590001  0.84345000  1
  C  C1136  1  0.51793332  0.55346667  0.87596499  1
  C  C1137  1  0.57026669  0.58339998  0.80513501  1
  C  C1138  1  0.47309999  0.55153335  0.92360001  1
  N  N1139  1  0.56376669  0.50133332  0.85912499  1
  N  N1140  1  0.59476666  0.52100000  0.81632498  1
  C  C1141  1  0.60106669  0.61113332  0.75924000  1
  O  O1142  1  0.47843334  0.49483335  0.94346500  1
  O  O1143  1  0.43549999  0.59730002  0.94185999  1
  H  H1144  1  0.62800000  0.49433332  0.79644999  1
  O  O1145  1  0.57596669  0.67153334  0.75166000  1
  O  O1146  1  0.64689999  0.57926668  0.73138000  1
  H  H1147  1  0.45200001  0.49566665  0.97050001  1
  H  H1148  1  0.60133334  0.68266668  0.71749999  1
  H  H1149  1  0.17326666  0.01969999  0.15300000  1
  C  C1150  1  0.14660002  0.06076666  0.15655000  1
  C  C1151  1  0.14873335  0.11319999  0.12403501  1
  C  C1152  1  0.09639998  0.08326669  0.19486499  1
  C  C1153  1  0.19356667  0.11513332  0.07639999  1
  N  N1154  1  0.10289997  0.16533335  0.14087501  1
  N  N1155  1  0.07190001  0.14566667  0.18367502  1
  C  C1156  1  0.06559998  0.05553335  0.24076000  1
  O  O1157  1  0.18823332  0.17183332  0.05653500  1
  O  O1158  1  0.23116667  0.06936664  0.05814001  1
  H  H1159  1  0.03866667  0.17233334  0.20355001  1
  O  O1160  1  0.09069998  -0.00486667  0.24834000  1
  O  O1161  1  0.01976668  0.08739998  0.26862000  1
  H  H1162  1  0.21466666  0.17100002  0.02949999  1
  H  H1163  1  0.06533333  -0.01600001  0.28250001  1
  H  H1164  1  0.49340001  0.98030001  0.34700000  1
  C  C1165  1  0.52006664  0.93923334  0.34345000  1
  C  C1166  1  0.51793332  0.88680001  0.37596499  1
  C  C1167  1  0.57026669  0.91673331  0.30513501  1
  C  C1168  1  0.47309999  0.88486668  0.42360001  1
  N  N1169  1  0.56376669  0.83466665  0.35912499  1
  N  N1170  1  0.59476666  0.85433333  0.31632498  1
  C  C1171  1  0.60106669  0.94446665  0.25924000  1
  O  O1172  1  0.47843334  0.82816668  0.44346500  1
  O  O1173  1  0.43549999  0.93063336  0.44185999  1
  H  H1174  1  0.62800000  0.82766666  0.29644999  1
  O  O1175  1  0.57596669  1.00486667  0.25166000  1
  O  O1176  1  0.64689999  0.91260002  0.23138000  1
  H  H1177  1  0.45200001  0.82899998  0.47050001  1
  H  H1178  1  0.60133334  1.01600001  0.21749999  1
  H  H1179  1  0.17326666  0.35303333  -0.34700000  1
  C  C1180  1  0.14660002  0.39409999  -0.34345000  1
  C  C1181  1  0.14873335  0.44653333  -0.37596499  1
  C  C1182  1  0.09639998  0.41660002  -0.30513501  1
  C  C1183  1  0.19356667  0.44846665  -0.42360001  1
  N  N1184  1  0.10289997  0.49866668  -0.35912499  1
  N  N1185  1  0.07190001  0.47900000  -0.31632498  1
  C  C1186  1  0.06559998  0.38886668  -0.25924000  1
  O  O1187  1  0.18823332  0.50516665  -0.44346500  1
  O  O1188  1  0.23116667  0.40269998  -0.44185999  1
  H  H1189  1  0.03866667  0.50566668  -0.29644999  1
  O  O1190  1  0.09069998  0.32846666  -0.25166000  1
  O  O1191  1  0.01976668  0.42073332  -0.23138000  1
  H  H1192  1  0.21466666  0.50433335  -0.47050001  1
  H  H1193  1  0.06533333  0.31733332  -0.21749999  1
  H  H1194  1  0.49340001  0.98030001  0.84700000  1
  C  C1195  1  0.52006664  0.93923334  0.84345000  1
  C  C1196  1  0.51793332  0.88680001  0.87596499  1
  C  C1197  1  0.57026669  0.91673331  0.80513501  1
  C  C1198  1  0.47309999  0.88486668  0.92360001  1
  N  N1199  1  0.56376669  0.83466665  0.85912499  1
  N  N1200  1  0.59476666  0.85433333  0.81632498  1
  C  C1201  1  0.60106669  0.94446665  0.75924000  1
  O  O1202  1  0.47843334  0.82816668  0.94346500  1
  O  O1203  1  0.43549999  0.93063336  0.94185999  1
  H  H1204  1  0.62800000  0.82766666  0.79644999  1
  O  O1205  1  0.57596669  1.00486667  0.75166000  1
  O  O1206  1  0.64689999  0.91260002  0.73138000  1
  H  H1207  1  0.45200001  0.82899998  0.97050001  1
  H  H1208  1  0.60133334  1.01600001  0.71749999  1
  H  H1209  1  0.17326666  0.35303333  0.15300000  1
  C  C1210  1  0.14660002  0.39409999  0.15655000  1
  C  C1211  1  0.14873335  0.44653333  0.12403501  1
  C  C1212  1  0.09639998  0.41660002  0.19486499  1
  C  C1213  1  0.19356667  0.44846665  0.07639999  1
  N  N1214  1  0.10289997  0.49866668  0.14087501  1
  N  N1215  1  0.07190001  0.47900000  0.18367502  1
  C  C1216  1  0.06559998  0.38886668  0.24076000  1
  O  O1217  1  0.18823332  0.50516665  0.05653500  1
  O  O1218  1  0.23116667  0.40269998  0.05814001  1
  H  H1219  1  0.03866667  0.50566668  0.20355001  1
  O  O1220  1  0.09069998  0.32846666  0.24834000  1
  O  O1221  1  0.01976668  0.42073332  0.26862000  1
  H  H1222  1  0.21466666  0.50433335  0.02949999  1
  H  H1223  1  0.06533333  0.31733332  0.28250001  1
  H  H1224  1  0.82673334  0.31363334  0.34700000  1
  C  C1225  1  0.85339998  0.27256667  0.34345000  1
  C  C1226  1  0.85126665  0.22013334  0.37596499  1
  C  C1227  1  0.90360002  0.25006664  0.30513501  1
  C  C1228  1  0.80643333  0.21820002  0.42360001  1
  N  N1229  1  0.89710003  0.16799999  0.35912499  1
  N  N1230  1  0.92809999  0.18766667  0.31632498  1
  C  C1231  1  0.93440002  0.27779998  0.25924000  1
  O  O1232  1  0.81176668  0.16150001  0.44346500  1
  O  O1233  1  0.76883333  0.26396669  0.44185999  1
  H  H1234  1  0.96133333  0.16099999  0.29644999  1
  O  O1235  1  0.90930002  0.33820000  0.25166000  1
  O  O1236  1  0.98023332  0.24593335  0.23138000  1
  H  H1237  1  0.78533334  0.16233332  0.47050001  1
  H  H1238  1  0.93466667  0.34933334  0.21749999  1
  H  H1239  1  0.50659999  -0.31363334  -0.34700000  1
  C  C1240  1  0.47993336  -0.27256667  -0.34345000  1
  C  C1241  1  0.48206668  -0.22013334  -0.37596499  1
  C  C1242  1  0.42973331  -0.25006664  -0.30513501  1
  C  C1243  1  0.52690001  -0.21820002  -0.42360001  1
  N  N1244  1  0.43623331  -0.16799999  -0.35912499  1
  N  N1245  1  0.40523334  -0.18766667  -0.31632498  1
  C  C1246  1  0.39893331  -0.27779998  -0.25924000  1
  O  O1247  1  0.52156666  -0.16150001  -0.44346500  1
  O  O1248  1  0.56450001  -0.26396669  -0.44185999  1
  H  H1249  1  0.37200000  -0.16099999  -0.29644999  1
  O  O1250  1  0.42403331  -0.33820000  -0.25166000  1
  O  O1251  1  0.35310001  -0.24593335  -0.23138000  1
  H  H1252  1  0.54799999  -0.16233332  -0.47050001  1
  H  H1253  1  0.39866666  -0.34933334  -0.21749999  1
  H  H1254  1  0.82673334  0.31363334  0.84700000  1
  C  C1255  1  0.85339998  0.27256667  0.84345000  1
  C  C1256  1  0.85126665  0.22013334  0.87596499  1
  C  C1257  1  0.90360002  0.25006664  0.80513501  1
  C  C1258  1  0.80643333  0.21820002  0.92360001  1
  N  N1259  1  0.89710003  0.16799999  0.85912499  1
  N  N1260  1  0.92809999  0.18766667  0.81632498  1
  C  C1261  1  0.93440002  0.27779998  0.75924000  1
  O  O1262  1  0.81176668  0.16150001  0.94346500  1
  O  O1263  1  0.76883333  0.26396669  0.94185999  1
  H  H1264  1  0.96133333  0.16099999  0.79644999  1
  O  O1265  1  0.90930002  0.33820000  0.75166000  1
  O  O1266  1  0.98023332  0.24593335  0.73138000  1
  H  H1267  1  0.78533334  0.16233332  0.97050001  1
  H  H1268  1  0.93466667  0.34933334  0.71749999  1
  H  H1269  1  0.50659999  -0.31363334  0.15300000  1
  C  C1270  1  0.47993336  -0.27256667  0.15655000  1
  C  C1271  1  0.48206668  -0.22013334  0.12403501  1
  C  C1272  1  0.42973331  -0.25006664  0.19486499  1
  C  C1273  1  0.52690001  -0.21820002  0.07639999  1
  N  N1274  1  0.43623331  -0.16799999  0.14087501  1
  N  N1275  1  0.40523334  -0.18766667  0.18367502  1
  C  C1276  1  0.39893331  -0.27779998  0.24076000  1
  O  O1277  1  0.52156666  -0.16150001  0.05653500  1
  O  O1278  1  0.56450001  -0.26396669  0.05814001  1
  H  H1279  1  0.37200000  -0.16099999  0.20355001  1
  O  O1280  1  0.42403331  -0.33820000  0.24834000  1
  O  O1281  1  0.35310001  -0.24593335  0.26862000  1
  H  H1282  1  0.54799999  -0.16233332  0.02949999  1
  H  H1283  1  0.39866666  -0.34933334  0.28250001  1
  H  H1284  1  0.82673334  0.64696667  0.34700000  1
  C  C1285  1  0.85339998  0.60590001  0.34345000  1
  C  C1286  1  0.85126665  0.55346667  0.37596499  1
  C  C1287  1  0.90360002  0.58339998  0.30513501  1
  C  C1288  1  0.80643333  0.55153335  0.42360001  1
  N  N1289  1  0.89710003  0.50133332  0.35912499  1
  N  N1290  1  0.92809999  0.52100000  0.31632498  1
  C  C1291  1  0.93440002  0.61113332  0.25924000  1
  O  O1292  1  0.81176668  0.49483335  0.44346500  1
  O  O1293  1  0.76883333  0.59730002  0.44185999  1
  H  H1294  1  0.96133333  0.49433332  0.29644999  1
  O  O1295  1  0.90930002  0.67153334  0.25166000  1
  O  O1296  1  0.98023332  0.57926668  0.23138000  1
  H  H1297  1  0.78533334  0.49566665  0.47050001  1
  H  H1298  1  0.93466667  0.68266668  0.21749999  1
  H  H1299  1  0.50659999  0.01969999  -0.34700000  1
  C  C1300  1  0.47993336  0.06076666  -0.34345000  1
  C  C1301  1  0.48206668  0.11319999  -0.37596499  1
  C  C1302  1  0.42973331  0.08326669  -0.30513501  1
  C  C1303  1  0.52690001  0.11513332  -0.42360001  1
  N  N1304  1  0.43623331  0.16533335  -0.35912499  1
  N  N1305  1  0.40523334  0.14566667  -0.31632498  1
  C  C1306  1  0.39893331  0.05553335  -0.25924000  1
  O  O1307  1  0.52156666  0.17183332  -0.44346500  1
  O  O1308  1  0.56450001  0.06936664  -0.44185999  1
  H  H1309  1  0.37200000  0.17233334  -0.29644999  1
  O  O1310  1  0.42403331  -0.00486667  -0.25166000  1
  O  O1311  1  0.35310001  0.08739998  -0.23138000  1
  H  H1312  1  0.54799999  0.17100002  -0.47050001  1
  H  H1313  1  0.39866666  -0.01600001  -0.21749999  1
  H  H1314  1  0.82673334  0.64696667  0.84700000  1
  C  C1315  1  0.85339998  0.60590001  0.84345000  1
  C  C1316  1  0.85126665  0.55346667  0.87596499  1
  C  C1317  1  0.90360002  0.58339998  0.80513501  1
  C  C1318  1  0.80643333  0.55153335  0.92360001  1
  N  N1319  1  0.89710003  0.50133332  0.85912499  1
  N  N1320  1  0.92809999  0.52100000  0.81632498  1
  C  C1321  1  0.93440002  0.61113332  0.75924000  1
  O  O1322  1  0.81176668  0.49483335  0.94346500  1
  O  O1323  1  0.76883333  0.59730002  0.94185999  1
  H  H1324  1  0.96133333  0.49433332  0.79644999  1
  O  O1325  1  0.90930002  0.67153334  0.75166000  1
  O  O1326  1  0.98023332  0.57926668  0.73138000  1
  H  H1327  1  0.78533334  0.49566665  0.97050001  1
  H  H1328  1  0.93466667  0.68266668  0.71749999  1
  H  H1329  1  0.50659999  0.01969999  0.15300000  1
  C  C1330  1  0.47993336  0.06076666  0.15655000  1
  C  C1331  1  0.48206668  0.11319999  0.12403501  1
  C  C1332  1  0.42973331  0.08326669  0.19486499  1
  C  C1333  1  0.52690001  0.11513332  0.07639999  1
  N  N1334  1  0.43623331  0.16533335  0.14087501  1
  N  N1335  1  0.40523334  0.14566667  0.18367502  1
  C  C1336  1  0.39893331  0.05553335  0.24076000  1
  O  O1337  1  0.52156666  0.17183332  0.05653500  1
  O  O1338  1  0.56450001  0.06936664  0.05814001  1
  H  H1339  1  0.37200000  0.17233334  0.20355001  1
  O  O1340  1  0.42403331  -0.00486667  0.24834000  1
  O  O1341  1  0.35310001  0.08739998  0.26862000  1
  H  H1342  1  0.54799999  0.17100002  0.02949999  1
  H  H1343  1  0.39866666  -0.01600001  0.28250001  1
  H  H1344  1  0.82673334  0.98030001  0.34700000  1
  C  C1345  1  0.85339998  0.93923334  0.34345000  1
  C  C1346  1  0.85126665  0.88680001  0.37596499  1
  C  C1347  1  0.90360002  0.91673331  0.30513501  1
  C  C1348  1  0.80643333  0.88486668  0.42360001  1
  N  N1349  1  0.89710003  0.83466665  0.35912499  1
  N  N1350  1  0.92809999  0.85433333  0.31632498  1
  C  C1351  1  0.93440002  0.94446665  0.25924000  1
  O  O1352  1  0.81176668  0.82816668  0.44346500  1
  O  O1353  1  0.76883333  0.93063336  0.44185999  1
  H  H1354  1  0.96133333  0.82766666  0.29644999  1
  O  O1355  1  0.90930002  1.00486667  0.25166000  1
  O  O1356  1  0.98023332  0.91260002  0.23138000  1
  H  H1357  1  0.78533334  0.82899998  0.47050001  1
  H  H1358  1  0.93466667  1.01600001  0.21749999  1
  H  H1359  1  0.50659999  0.35303333  -0.34700000  1
  C  C1360  1  0.47993336  0.39409999  -0.34345000  1
  C  C1361  1  0.48206668  0.44653333  -0.37596499  1
  C  C1362  1  0.42973331  0.41660002  -0.30513501  1
  C  C1363  1  0.52690001  0.44846665  -0.42360001  1
  N  N1364  1  0.43623331  0.49866668  -0.35912499  1
  N  N1365  1  0.40523334  0.47900000  -0.31632498  1
  C  C1366  1  0.39893331  0.38886668  -0.25924000  1
  O  O1367  1  0.52156666  0.50516665  -0.44346500  1
  O  O1368  1  0.56450001  0.40269998  -0.44185999  1
  H  H1369  1  0.37200000  0.50566668  -0.29644999  1
  O  O1370  1  0.42403331  0.32846666  -0.25166000  1
  O  O1371  1  0.35310001  0.42073332  -0.23138000  1
  H  H1372  1  0.54799999  0.50433335  -0.47050001  1
  H  H1373  1  0.39866666  0.31733332  -0.21749999  1
  H  H1374  1  0.82673334  0.98030001  0.84700000  1
  C  C1375  1  0.85339998  0.93923334  0.84345000  1
  C  C1376  1  0.85126665  0.88680001  0.87596499  1
  C  C1377  1  0.90360002  0.91673331  0.80513501  1
  C  C1378  1  0.80643333  0.88486668  0.92360001  1
  N  N1379  1  0.89710003  0.83466665  0.85912499  1
  N  N1380  1  0.92809999  0.85433333  0.81632498  1
  C  C1381  1  0.93440002  0.94446665  0.75924000  1
  O  O1382  1  0.81176668  0.82816668  0.94346500  1
  O  O1383  1  0.76883333  0.93063336  0.94185999  1
  H  H1384  1  0.96133333  0.82766666  0.79644999  1
  O  O1385  1  0.90930002  1.00486667  0.75166000  1
  O  O1386  1  0.98023332  0.91260002  0.73138000  1
  H  H1387  1  0.78533334  0.82899998  0.97050001  1
  H  H1388  1  0.93466667  1.01600001  0.71749999  1
  H  H1389  1  0.50659999  0.35303333  0.15300000  1
  C  C1390  1  0.47993336  0.39409999  0.15655000  1
  C  C1391  1  0.48206668  0.44653333  0.12403501  1
  C  C1392  1  0.42973331  0.41660002  0.19486499  1
  C  C1393  1  0.52690001  0.44846665  0.07639999  1
  N  N1394  1  0.43623331  0.49866668  0.14087501  1
  N  N1395  1  0.40523334  0.47900000  0.18367502  1
  C  C1396  1  0.39893331  0.38886668  0.24076000  1
  O  O1397  1  0.52156666  0.50516665  0.05653500  1
  O  O1398  1  0.56450001  0.40269998  0.05814001  1
  H  H1399  1  0.37200000  0.50566668  0.20355001  1
  O  O1400  1  0.42403331  0.32846666  0.24834000  1
  O  O1401  1  0.35310001  0.42073332  0.26862000  1
  H  H1402  1  0.54799999  0.50433335  0.02949999  1
  H  H1403  1  0.39866666  0.31733332  0.28250001  1
