# generated using pymatgen
data_H14C13(NO)6
_symmetry_space_group_name_H-M   P1
_cell_length_a   22.59330000
_cell_length_b   23.68410000
_cell_length_c   28.43980000
_cell_angle_alpha   78.16600000
_cell_angle_beta   75.12800000
_cell_angle_gamma   66.75000000
_symmetry_Int_Tables_number   1
_chemical_formula_structural   H14C13(NO)6
_chemical_formula_sum   'H504 C468 N216 O216'
_cell_volume   13421.38469143
_cell_formula_units_Z   36
loop_
 _symmetry_equiv_pos_site_id
 _symmetry_equiv_pos_as_xyz
  1  'x, y, z'
loop_
 _atom_site_type_symbol
 _atom_site_label
 _atom_site_symmetry_multiplicity
 _atom_site_fract_x
 _atom_site_fract_y
 _atom_site_fract_z
 _atom_site_occupancy
  H  H0  1  0.00209748  0.82295056  0.31261793  1.0
  H  H1  1  0.00270710  0.55431873  0.23771723  1.0
  H  H2  1  0.00383868  0.26413942  0.37935890  1.0
  H  H3  1  0.00559203  0.33719476  0.28614595  1.0
  H  H4  1  0.00668934  0.50512619  0.93186483  1.0
  H  H5  1  0.00802376  0.75059612  0.68712858  1.0
  H  H6  1  0.00944258  0.85803292  0.07687318  1.0
  H  H7  1  0.00984318  0.50052926  0.41761660  1.0
  H  H8  1  0.01203473  0.87331788  0.17580515  1.0
  H  H9  1  0.01346539  0.59784146  0.88318746  1.0
  H  H10  1  0.01389751  0.13880023  0.71502642  1.0
  H  H11  1  0.01585707  0.80372721  0.98072901  1.0
  H  H12  1  0.02216969  0.47260635  0.65126041  1.0
  H  H13  1  0.02647056  0.78719766  0.62740530  1.0
  H  H14  1  0.03042575  0.10749192  0.95461554  1.0
  H  H15  1  0.03043330  0.77280087  0.51726318  1.0
  H  H16  1  0.03244002  0.81477517  0.86785443  1.0
  H  H17  1  0.03409045  0.18525573  0.27363267  1.0
  H  H18  1  0.03644924  0.96944902  0.70145359  1.0
  H  H19  1  0.03884741  0.51592189  0.71109033  1.0
  H  H20  1  0.04158942  0.06048586  0.07359848  1.0
  H  H21  1  0.04660800  0.11214009  0.66098595  1.0
  H  H22  1  0.04741346  0.04908001  0.31517515  1.0
  H  H23  1  0.05120337  0.70328592  0.55749980  1.0
  H  H24  1  0.05199612  0.18701859  0.39748041  1.0
  H  H25  1  0.05245549  0.32646102  0.81379045  1.0
  H  H26  1  0.05463706  0.57421115  0.26332820  1.0
  H  H27  1  0.05522424  0.29719152  0.57401623  1.0
  H  H28  1  0.05905185  0.48740318  0.13140953  1.0
  H  H29  1  0.05918092  0.94296694  0.47189152  1.0
  H  H30  1  0.06006324  0.02328101  0.71899398  1.0
  H  H31  1  0.06064213  0.38099228  0.92835493  1.0
  H  H32  1  0.06294519  0.55207984  0.80438925  1.0
  H  H33  1  0.06337252  0.30937403  0.06303422  1.0
  H  H34  1  0.06557830  0.46525287  0.96999388  1.0
  H  H35  1  0.06848596  0.91923903  0.93960281  1.0
  H  H36  1  0.07040586  0.59987728  0.05718399  1.0
  H  H37  1  0.07076836  0.87130329  0.58723279  1.0
  H  H38  1  0.07351285  0.34590537  0.72631891  1.0
  H  H39  1  0.08073799  0.58430894  0.59072425  1.0
  H  H40  1  0.08269842  0.29153316  0.86835579  1.0
  H  H41  1  0.08344038  0.79704008  0.22520932  1.0
  H  H42  1  0.08438610  0.04968822  0.86586795  1.0
  H  H43  1  0.08846195  0.26246843  0.01573480  1.0
  H  H44  1  0.08912550  0.07788539  0.26021937  1.0
  H  H45  1  0.09084896  0.82569638  0.40758801  1.0
  H  H46  1  0.09146497  0.21552198  0.57743961  1.0
  H  H47  1  0.09305349  0.44652353  0.76306701  1.0
  H  H48  1  0.09410141  0.46328081  0.21089580  1.0
  H  H49  1  0.10072616  0.66124349  0.03757696  1.0
  H  H50  1  0.10138554  0.86165560  0.30390643  1.0
  H  H51  1  0.10175919  0.81551269  0.46409674  1.0
  H  H52  1  0.10225988  0.89828296  0.51865637  1.0
  H  H53  1  0.10544392  0.03084215  0.17790084  1.0
  H  H54  1  0.10572670  0.30020528  0.36029949  1.0
  H  H55  1  0.10679723  0.26095411  0.52161385  1.0
  H  H56  1  0.10813098  0.24937263  0.81717383  1.0
  H  H57  1  0.10989611  0.74581380  0.81222682  1.0
  H  H58  1  0.11296420  0.43854563  0.67965554  1.0
  H  H59  1  0.11308397  0.96619240  0.94029082  1.0
  H  H60  1  0.11378665  0.72557606  0.51567898  1.0
  H  H61  1  0.11416007  0.37178406  0.44487749  1.0
  H  H62  1  0.11450137  0.11177871  0.74289190  1.0
  H  H63  1  0.11733335  0.80084325  0.99177571  1.0
  H  H64  1  0.11803513  0.96821569  0.68059929  1.0
  H  H65  1  0.11836120  0.98345296  0.10174261  1.0
  H  H66  1  0.11971344  0.46799116  0.03910586  1.0
  H  H67  1  0.12351513  0.96050134  0.48303043  1.0
  H  H68  1  0.12554030  0.07957108  0.39349516  1.0
  H  H69  1  0.12861190  0.00286591  0.28885306  1.0
  H  H70  1  0.12872029  0.57208637  0.80905477  1.0
  H  H71  1  0.12955075  0.49141237  0.51419278  1.0
  H  H72  1  0.12965031  0.72182162  0.20838616  1.0
  H  H73  1  0.13090750  0.14838275  0.21648278  1.0
  H  H74  1  0.13306772  0.61517263  0.36002012  1.0
  H  H75  1  0.13448971  0.75594640  0.43079975  1.0
  H  H76  1  0.13456356  0.61488491  0.23183647  1.0
  H  H77  1  0.13685791  0.49570085  0.44995293  1.0
  H  H78  1  0.14000335  0.10339486  0.53510146  1.0
  H  H79  1  0.14042106  0.24701953  0.05768289  1.0
  H  H80  1  0.14207720  0.49509824  0.80383152  1.0
  H  H81  1  0.14337003  0.59481329  0.07372570  1.0
  H  H82  1  0.14391004  0.73920963  0.57726978  1.0
  H  H83  1  0.14596796  0.18529534  0.45535587  1.0
  H  H84  1  0.14616783  0.07179999  0.06481440  1.0
  H  H85  1  0.14866834  0.00892499  0.99460821  1.0
  H  H86  1  0.14968131  0.21296062  0.22067900  1.0
  H  H87  1  0.14969544  0.30054501  0.63347694  1.0
  H  H88  1  0.15078661  0.64835272  0.84570568  1.0
  H  H89  1  0.15267373  0.04059593  0.71782918  1.0
  H  H90  1  0.15550490  0.88834622  0.92827208  1.0
  H  H91  1  0.15726054  0.90163501  0.28437199  1.0
  H  H92  1  0.16063253  0.13960532  0.80280888  1.0
  H  H93  1  0.16357222  0.74736144  0.75475505  1.0
  H  H94  1  0.16457199  0.75960952  0.23496355  1.0
  H  H95  1  0.16615146  0.53311106  0.23293359  1.0
  H  H96  1  0.16753047  0.25125051  0.43267413  1.0
  H  H97  1  0.17291241  0.51212771  0.11621033  1.0
  H  H98  1  0.17703014  0.13235460  0.04638626  1.0
  H  H99  1  0.17737171  0.41978413  0.33615234  1.0
  H  H100  1  0.17958045  0.72993438  0.97491090  1.0
  H  H101  1  0.18453264  0.82268194  0.27662358  1.0
  H  H102  1  0.18475286  0.65722748  0.89202151  1.0
  H  H103  1  0.18861980  0.95321777  0.12917600  1.0
  H  H104  1  0.19028858  0.51579638  0.47328467  1.0
  H  H105  1  0.19107491  0.24890672  0.11927242  1.0
  H  H106  1  0.19144567  0.06282792  0.83130028  1.0
  H  H107  1  0.19428823  0.73131424  0.80882284  1.0
  H  H108  1  0.19836550  0.95515802  0.06554263  1.0
  H  H109  1  0.19936301  0.79666256  0.96899834  1.0
  H  H110  1  0.19941996  0.06870702  0.74126359  1.0
  H  H111  1  0.20189950  0.57841158  0.18637311  1.0
  H  H112  1  0.20237979  0.75149337  0.64371903  1.0
  H  H113  1  0.20401743  0.58290383  0.87611364  1.0
  H  H114  1  0.20513597  0.65501697  0.05440333  1.0
  H  H115  1  0.21081869  0.28133565  0.17610258  1.0
  H  H116  1  0.21298042  0.14555415  0.19847128  1.0
  H  H117  1  0.22058565  0.28324091  0.58690008  1.0
  H  H118  1  0.22663484  0.29460923  0.89697633  1.0
  H  H119  1  0.22878240  0.17638889  0.42921359  1.0
  H  H120  1  0.22898728  0.26465191  0.64848936  1.0
  H  H121  1  0.22913915  0.48456710  0.39292358  1.0
  H  H122  1  0.22942935  0.07964809  0.48365589  1.0
  H  H123  1  0.23201281  0.05424707  0.04415099  1.0
  H  H124  1  0.23349654  0.97476573  0.56878464  1.0
  H  H125  1  0.23682973  0.36808416  0.45098542  1.0
  H  H126  1  0.23790060  0.07260848  0.12961956  1.0
  H  H127  1  0.23996148  0.95577982  0.32235170  1.0
  H  H128  1  0.24519527  0.96647902  0.38028445  1.0
  H  H129  1  0.24672620  0.09595864  0.79226146  1.0
  H  H130  1  0.24802428  0.28360022  0.78176925  1.0
  H  H131  1  0.25212884  0.28364071  0.96868791  1.0
  H  H132  1  0.26415650  0.37786242  0.88094706  1.0
  H  H133  1  0.26645425  0.96115254  0.87655447  1.0
  H  H134  1  0.26876184  0.63516184  0.95286730  1.0
  H  H135  1  0.27018503  0.99606709  0.11347772  1.0
  H  H136  1  0.27059540  0.52541845  0.40774919  1.0
  H  H137  1  0.27129985  0.99104200  0.74439676  1.0
  H  H138  1  0.27213599  0.67179825  0.66886428  1.0
  H  H139  1  0.27417093  0.46226018  0.21704739  1.0
  H  H140  1  0.27742618  0.16520265  0.71922927  1.0
  H  H141  1  0.27877789  0.32457986  0.52475002  1.0
  H  H142  1  0.27932039  0.82391343  0.31252103  1.0
  H  H143  1  0.28067032  0.26406123  0.84382570  1.0
  H  H144  1  0.28526581  0.10916319  0.49337615  1.0
  H  H145  1  0.28778418  0.53405525  0.05262905  1.0
  H  H146  1  0.28820133  0.01201027  0.16545448  1.0
  H  H147  1  0.29200005  0.72456606  0.17465476  1.0
  H  H148  1  0.29206002  0.68725295  0.54002384  1.0
  H  H149  1  0.29320221  0.60674393  0.44702763  1.0
  H  H150  1  0.29358924  0.52897927  0.60813794  1.0
  H  H151  1  0.29401869  0.92548395  0.00517216  1.0
  H  H152  1  0.29431118  0.43403433  0.59232831  1.0
  H  H153  1  0.29574876  0.72606385  0.97483948  1.0
  H  H154  1  0.29642917  0.23389570  0.32613779  1.0
  H  H155  1  0.29729247  0.42635148  0.93889613  1.0
  H  H156  1  0.29785390  0.66100901  0.82646026  1.0
  H  H157  1  0.30091460  0.84078947  0.68848824  1.0
  H  H158  1  0.30148935  0.97019270  0.68142590  1.0
  H  H159  1  0.30352777  0.77216576  0.91630991  1.0
  H  H160  1  0.30364327  0.86977342  0.09054907  1.0
  H  H161  1  0.30384652  0.23484743  0.90122619  1.0
  H  H162  1  0.30496087  0.82632477  0.55430550  1.0
  H  H163  1  0.30797955  0.02815787  0.49467371  1.0
  H  H164  1  0.31021471  0.75347354  0.26250914  1.0
  H  H165  1  0.31091856  0.13521273  0.66182447  1.0
  H  H166  1  0.31205193  0.96327482  0.33017568  1.0
  H  H167  1  0.31230889  0.54180486  0.10414881  1.0
  H  H168  1  0.31527001  0.46214222  0.37267189  1.0
  H  H169  1  0.31530423  0.49682212  0.47303734  1.0
  H  H170  1  0.31535460  0.89890600  0.54216948  1.0
  H  H171  1  0.31593110  0.13952615  0.30634232  1.0
  H  H172  1  0.31694343  0.25254680  0.50021543  1.0
  H  H173  1  0.31714316  0.53172071  0.52143905  1.0
  H  H174  1  0.31794604  0.56291339  0.64645909  1.0
  H  H175  1  0.31815234  0.48669006  0.66308107  1.0
  H  H176  1  0.31872916  0.03894505  0.67059922  1.0
  H  H177  1  0.32827552  0.64707019  0.99766102  1.0
  H  H178  1  0.32980217  0.10566761  0.99112375  1.0
  H  H179  1  0.33001964  0.45201526  0.52935960  1.0
  H  H180  1  0.33339302  0.58292634  0.72224563  1.0
  H  H181  1  0.33692418  0.95505811  0.23543976  1.0
  H  H182  1  0.33837260  0.75958804  0.06858178  1.0
  H  H183  1  0.33894059  0.31466632  0.92069732  1.0
  H  H184  1  0.33988666  0.06434827  0.28995894  1.0
  H  H185  1  0.34004066  0.31692354  0.13207731  1.0
  H  H186  1  0.34032299  0.90603542  0.61129114  1.0
  H  H187  1  0.34303711  0.12341353  0.16682155  1.0
  H  H188  1  0.34327624  0.18516088  0.39285109  1.0
  H  H189  1  0.34578110  0.79025281  0.17461002  1.0
  H  H190  1  0.34692895  0.20002579  0.01953187  1.0
  H  H191  1  0.34741166  0.31280655  0.47633761  1.0
  H  H192  1  0.34880482  0.60890102  0.48040579  1.0
  H  H193  1  0.35164467  0.70193640  0.01429774  1.0
  H  H194  1  0.35272404  0.64083941  0.41802809  1.0
  H  H195  1  0.35376539  0.10277835  0.71100806  1.0
  H  H196  1  0.35396552  0.56000259  0.04442977  1.0
  H  H197  1  0.35463330  0.68549185  0.29648516  1.0
  H  H198  1  0.36703677  0.20200122  0.74774388  1.0
  H  H199  1  0.36799077  0.11850399  0.24897852  1.0
  H  H200  1  0.36811171  0.31861034  0.01774052  1.0
  H  H201  1  0.37252360  0.96943849  0.69766718  1.0
  H  H202  1  0.38383130  0.82886096  0.54535394  1.0
  H  H203  1  0.38657979  0.77206135  0.75900916  1.0
  H  H204  1  0.38670195  0.70270550  0.23352390  1.0
  H  H205  1  0.38750535  0.93222034  0.90034166  1.0
  H  H206  1  0.39761663  0.60469314  0.76593422  1.0
  H  H207  1  0.39795626  0.07063743  0.78384961  1.0
  H  H208  1  0.39813406  0.24086133  0.38192428  1.0
  H  H209  1  0.39949836  0.55136378  0.21677792  1.0
  H  H210  1  0.40661087  0.15593695  0.97493825  1.0
  H  H211  1  0.41078691  0.71348133  0.57263461  1.0
  H  H212  1  0.41307347  0.44157216  0.79976841  1.0
  H  H213  1  0.41379924  0.44924053  0.89622362  1.0
  H  H214  1  0.41536112  0.27063670  0.26511779  1.0
  H  H215  1  0.41921464  0.55506568  0.14861209  1.0
  H  H216  1  0.42127404  0.34371435  0.96844247  1.0
  H  H217  1  0.42396028  0.78385610  0.88068862  1.0
  H  H218  1  0.42743252  0.38449643  0.38032576  1.0
  H  H219  1  0.42763039  0.37052904  0.62084820  1.0
  H  H220  1  0.43058404  0.17988485  0.01970889  1.0
  H  H221  1  0.44350248  0.56847349  0.34802044  1.0
  H  H222  1  0.44581144  0.48488266  0.72830364  1.0
  H  H223  1  0.44865946  0.15969665  0.84060519  1.0
  H  H224  1  0.45342196  0.58639474  0.03199119  1.0
  H  H225  1  0.45367012  0.50354843  0.88320544  1.0
  H  H226  1  0.45392427  0.27745573  0.00865872  1.0
  H  H227  1  0.46311364  0.99267659  0.26529459  1.0
  H  H228  1  0.46322008  0.63004354  0.76104523  1.0
  H  H229  1  0.46660819  0.55539586  0.79188177  1.0
  H  H230  1  0.46889882  0.49598081  0.62038645  1.0
  H  H231  1  0.46935979  0.80138907  0.33361452  1.0
  H  H232  1  0.46948362  0.92958652  0.72549497  1.0
  H  H233  1  0.47817790  0.21399159  0.89188585  1.0
  H  H234  1  0.47921764  0.95523273  0.42848464  1.0
  H  H235  1  0.48047180  0.75426235  0.81840262  1.0
  H  H236  1  0.48198312  0.11617460  0.49480253  1.0
  H  H237  1  0.48324728  0.44160487  0.18748466  1.0
  H  H238  1  0.48451332  0.05618359  0.85506122  1.0
  H  H239  1  0.48513222  0.43976724  0.84917872  1.0
  H  H240  1  0.48690870  0.86091991  0.60999480  1.0
  H  H241  1  0.48911483  0.67677411  0.14857080  1.0
  H  H242  1  0.48949025  0.34216472  0.56916373  1.0
  H  H243  1  0.48987498  0.29422005  0.71108902  1.0
  H  H244  1  0.48989570  0.70960644  0.62537308  1.0
  H  H245  1  0.49164850  0.39434278  0.73812355  1.0
  H  H246  1  0.49198653  0.19628006  0.10914729  1.0
  H  H247  1  0.49421278  0.56827215  0.19562526  1.0
  H  H248  1  0.49435418  0.75430771  0.38703754  1.0
  H  H249  1  0.49471758  0.78728112  0.24621021  1.0
  H  H250  1  0.49535072  0.13387054  0.57420811  1.0
  H  H251  1  0.49568091  0.30026401  0.62744849  1.0
  H  H252  1  0.49898205  0.30294877  0.20235433  1.0
  H  H253  1  0.50215565  0.91580711  0.37610824  1.0
  H  H254  1  0.50246353  0.54608963  0.07606181  1.0
  H  H255  1  0.50311534  0.85619091  0.13001621  1.0
  H  H256  1  0.50347094  0.82716209  0.37011699  1.0
  H  H257  1  0.50394211  0.34126849  0.30887730  1.0
  H  H258  1  0.50532381  0.37902194  0.24888057  1.0
  H  H259  1  0.50640566  0.23201762  0.32759888  1.0
  H  H260  1  0.52409436  0.66470066  0.04699485  1.0
  H  H261  1  0.52474653  0.41143635  0.35910586  1.0
  H  H262  1  0.52613529  0.88260909  0.48889919  1.0
  H  H263  1  0.53049537  0.13735546  0.17438999  1.0
  H  H264  1  0.53140588  0.81561766  0.74943498  1.0
  H  H265  1  0.53220318  0.32340170  0.90204248  1.0
  H  H266  1  0.53567792  0.20263403  0.27001364  1.0
  H  H267  1  0.53706999  0.57904295  0.01977525  1.0
  H  H268  1  0.53727781  0.21316688  0.51735375  1.0
  H  H269  1  0.53757208  0.12229510  0.79602240  1.0
  H  H270  1  0.54637876  0.27818570  0.14590818  1.0
  H  H271  1  0.54762008  0.47624513  0.35554170  1.0
  H  H272  1  0.55020097  0.29871488  0.25874539  1.0
  H  H273  1  0.55820659  0.00869403  0.21838744  1.0
  H  H274  1  0.56069340  0.93558227  0.39287917  1.0
  H  H275  1  0.56202748  0.10396112  0.52682234  1.0
  H  H276  1  0.56229148  0.68048555  0.25889249  1.0
  H  H277  1  0.56273228  0.12801831  0.64196413  1.0
  H  H278  1  0.56405090  0.52172609  0.79756760  1.0
  H  H279  1  0.56607251  0.88636260  0.80949140  1.0
  H  H280  1  0.56710905  0.07155527  0.58807052  1.0
  H  H281  1  0.57012430  0.64827763  0.40192676  1.0
  H  H282  1  0.57080790  0.32155263  0.17574265  1.0
  H  H283  1  0.57088127  0.34396197  0.81727472  1.0
  H  H284  1  0.57194072  0.68595667  0.45642317  1.0
  H  H285  1  0.57435737  0.83465272  0.98094741  1.0
  H  H286  1  0.57600147  0.60821507  0.75781948  1.0
  H  H287  1  0.58123215  0.87601601  0.52597295  1.0
  H  H288  1  0.58539776  0.64616826  0.93778226  1.0
  H  H289  1  0.58617923  0.91678696  0.46622910  1.0
  H  H290  1  0.58891996  0.56874805  0.94403878  1.0
  H  H291  1  0.59021814  0.30475737  0.67472439  1.0
  H  H292  1  0.59164784  0.19808204  0.30525137  1.0
  H  H293  1  0.59190277  0.92803890  0.03262605  1.0
  H  H294  1  0.59202118  0.83040089  0.39239389  1.0
  H  H295  1  0.59263412  0.96467675  0.08116791  1.0
  H  H296  1  0.59341732  0.60737696  0.19632439  1.0
  H  H297  1  0.59455996  0.05641995  0.96878648  1.0
  H  H298  1  0.59643279  0.77268716  0.54151126  1.0
  H  H299  1  0.59889324  0.40080759  0.37470648  1.0
  H  H300  1  0.60016307  0.56699511  0.08907524  1.0
  H  H301  1  0.60017552  0.49551305  0.55885146  1.0
  H  H302  1  0.60512830  0.82907868  0.21700811  1.0
  H  H303  1  0.60606782  0.88458814  0.09025458  1.0
  H  H304  1  0.60705086  0.42106198  0.59192539  1.0
  H  H305  1  0.60723352  0.54217195  0.39138231  1.0
  H  H306  1  0.61012172  0.07258649  0.02822285  1.0
  H  H307  1  0.61053735  0.11724943  0.83653850  1.0
  H  H308  1  0.61365623  0.32717597  0.07869512  1.0
  H  H309  1  0.61467960  0.60536297  0.88642547  1.0
  H  H310  1  0.61808975  0.83417650  0.91928564  1.0
  H  H311  1  0.61841962  0.48029904  0.89999375  1.0
  H  H312  1  0.61846955  0.10625074  0.37677501  1.0
  H  H313  1  0.61880388  0.75027521  0.21623905  1.0
  H  H314  1  0.62073502  0.75633475  0.42579349  1.0
  H  H315  1  0.62162955  0.49314306  0.14497949  1.0
  H  H316  1  0.62238894  0.49170034  0.63873968  1.0
  H  H317  1  0.62415718  0.36720393  0.83744732  1.0
  H  H318  1  0.62631121  0.22082908  0.09743820  1.0
  H  H319  1  0.62766069  0.29344543  0.55632184  1.0
  H  H320  1  0.63085047  0.96491442  0.58491820  1.0
  H  H321  1  0.63292832  0.74850652  0.88002559  1.0
  H  H322  1  0.63453261  0.42905800  0.52781379  1.0
  H  H323  1  0.63557839  0.81884950  0.43936175  1.0
  H  H324  1  0.63786321  0.29205075  0.02426588  1.0
  H  H325  1  0.64469715  0.85449494  0.96481174  1.0
  H  H326  1  0.64689100  0.67082313  0.47810325  1.0
  H  H327  1  0.64773854  0.33989933  0.77963663  1.0
  H  H328  1  0.65030821  0.06903687  0.63792840  1.0
  H  H329  1  0.65253872  0.53189159  0.31202876  1.0
  H  H330  1  0.65581961  0.09065020  0.26760462  1.0
  H  H331  1  0.65963391  0.53529848  0.03765998  1.0
  H  H332  1  0.66743873  0.78796376  0.17261545  1.0
  H  H333  1  0.67046958  0.42117476  0.86250420  1.0
  H  H334  1  0.67081292  0.90761072  0.54442774  1.0
  H  H335  1  0.67086255  0.68262200  0.72173082  1.0
  H  H336  1  0.67102964  0.40918091  0.92588194  1.0
  H  H337  1  0.67774707  0.80719816  0.52181359  1.0
  H  H338  1  0.68098122  0.11055921  0.78984986  1.0
  H  H339  1  0.68101186  0.33552971  0.03315817  1.0
  H  H340  1  0.68307525  0.91492980  0.74348622  1.0
  H  H341  1  0.68325644  0.55768166  0.08402519  1.0
  H  H342  1  0.68365382  0.05849238  0.56669988  1.0
  H  H343  1  0.68736502  0.82133596  0.74320570  1.0
  H  H344  1  0.68816146  0.06526655  0.84673774  1.0
  H  H345  1  0.69232410  0.11500721  0.30356183  1.0
  H  H346  1  0.69254342  0.03165337  0.20428272  1.0
  H  H347  1  0.69534634  0.97135003  0.03294588  1.0
  H  H348  1  0.69562763  0.90962815  0.36496688  1.0
  H  H349  1  0.69652322  0.97450773  0.93865630  1.0
  H  H350  1  0.69923460  0.15585125  0.10098920  1.0
  H  H351  1  0.70006387  0.85383481  0.01718958  1.0
  H  H352  1  0.70180537  0.91405327  0.09673425  1.0
  H  H353  1  0.70454574  0.22812675  0.07657896  1.0
  H  H354  1  0.70476453  0.27061146  0.73101692  1.0
  H  H355  1  0.70759702  0.66263939  0.57969237  1.0
  H  H356  1  0.71216420  0.73558785  0.49659105  1.0
  H  H357  1  0.71557460  0.91995571  0.58178395  1.0
  H  H358  1  0.71592304  0.24063290  0.36191947  1.0
  H  H359  1  0.71672735  0.91465139  0.80513961  1.0
  H  H360  1  0.72435718  0.14369475  0.36603492  1.0
  H  H361  1  0.72558941  0.50819505  0.15776433  1.0
  H  H362  1  0.72701563  0.49815441  0.80464188  1.0
  H  H363  1  0.72843678  0.39707968  0.61723024  1.0
  H  H364  1  0.73094041  0.48316931  0.67093144  1.0
  H  H365  1  0.73101602  0.95311314  0.31664995  1.0
  H  H366  1  0.73276463  0.38992017  0.37400369  1.0
  H  H367  1  0.73406756  0.30226185  0.37153804  1.0
  H  H368  1  0.74177187  0.29170484  0.95588094  1.0
  H  H369  1  0.74187698  0.06718952  0.25657973  1.0
  H  H370  1  0.74457585  0.10946113  0.57141011  1.0
  H  H371  1  0.74632145  0.12299081  0.98193978  1.0
  H  H372  1  0.74730727  0.18123514  0.01115657  1.0
  H  H373  1  0.74822579  0.27620127  0.67034101  1.0
  H  H374  1  0.75220526  0.47569002  0.21412948  1.0
  H  H375  1  0.75314711  0.43986189  0.06334007  1.0
  H  H376  1  0.75328137  0.83358551  0.05920175  1.0
  H  H377  1  0.75808653  0.62596091  0.31480379  1.0
  H  H378  1  0.75873054  0.31155634  0.71541389  1.0
  H  H379  1  0.75932215  0.78260323  0.48773779  1.0
  H  H380  1  0.76079055  0.60073868  0.76234345  1.0
  H  H381  1  0.76102177  0.01999793  0.77655918  1.0
  H  H382  1  0.76308322  0.78301297  0.41546502  1.0
  H  H383  1  0.76375208  0.64310343  0.18318737  1.0
  H  H384  1  0.76388800  0.55401644  0.58798113  1.0
  H  H385  1  0.76393467  0.87856586  0.22983076  1.0
  H  H386  1  0.76398139  0.36379235  0.12703818  1.0
  H  H387  1  0.76417611  0.13265356  0.41519362  1.0
  H  H388  1  0.76747715  0.02020744  0.87843598  1.0
  H  H389  1  0.77526988  0.30474529  0.79804683  1.0
  H  H390  1  0.77670884  0.15488294  0.59179565  1.0
  H  H391  1  0.77759486  0.42965155  0.16566285  1.0
  H  H392  1  0.78116184  0.79999698  0.00384150  1.0
  H  H393  1  0.78178095  0.25746528  0.32238511  1.0
  H  H394  1  0.78250900  0.88487981  0.34657941  1.0
  H  H395  1  0.78561785  0.15410217  0.52851349  1.0
  H  H396  1  0.78770253  0.03273203  0.71297929  1.0
  H  H397  1  0.79076284  0.34706515  0.83533981  1.0
  H  H398  1  0.79292948  0.84003613  0.72541693  1.0
  H  H399  1  0.79594593  0.67960664  0.10626110  1.0
  H  H400  1  0.80191032  0.26684059  0.45211560  1.0
  H  H401  1  0.80368098  0.48189999  0.05891070  1.0
  H  H402  1  0.80699537  0.69739262  0.73153076  1.0
  H  H403  1  0.81021517  0.10113123  0.36048374  1.0
  H  H404  1  0.81133410  0.18901968  0.83624003  1.0
  H  H405  1  0.81427255  0.35802011  0.53286171  1.0
  H  H406  1  0.81490033  0.61795568  0.89892829  1.0
  H  H407  1  0.81651163  0.14482153  0.96678796  1.0
  H  H408  1  0.81652874  0.48365935  0.31006443  1.0
  H  H409  1  0.81782516  0.63563958  0.70035628  1.0
  H  H410  1  0.81849253  0.33196516  0.20912186  1.0
  H  H411  1  0.81917929  0.26120492  0.24460047  1.0
  H  H412  1  0.81991333  0.14954519  0.04830942  1.0
  H  H413  1  0.82373350  0.21689734  0.58955132  1.0
  H  H414  1  0.83022658  0.96273354  0.74610178  1.0
  H  H415  1  0.83212444  0.54571426  0.42302789  1.0
  H  H416  1  0.83309975  0.66249902  0.49615921  1.0
  H  H417  1  0.83700799  0.00996415  0.21428306  1.0
  H  H418  1  0.83869374  0.05728357  0.93757381  1.0
  H  H419  1  0.83966861  0.40386249  0.04611855  1.0
  H  H420  1  0.84035347  0.33302038  0.77658123  1.0
  H  H421  1  0.84489851  0.25345647  0.62703661  1.0
  H  H422  1  0.84727232  0.67648916  0.43108150  1.0
  H  H423  1  0.84872559  0.69499891  0.85137564  1.0
  H  H424  1  0.84879453  0.90347497  0.66412771  1.0
  H  H425  1  0.85348847  0.68858229  0.99415074  1.0
  H  H426  1  0.85377819  0.28895364  0.92779053  1.0
  H  H427  1  0.85834634  0.57665466  0.84790079  1.0
  H  H428  1  0.85874710  0.88840132  0.56776695  1.0
  H  H429  1  0.85914069  0.78387335  0.44854869  1.0
  H  H430  1  0.86024877  0.05947742  0.23849287  1.0
  H  H431  1  0.86348342  0.68992016  0.93013132  1.0
  H  H432  1  0.86789722  0.26122803  0.18508701  1.0
  H  H433  1  0.87039154  0.63011111  0.10966281  1.0
  H  H434  1  0.87105374  0.62010122  0.96839118  1.0
  H  H435  1  0.87203502  0.51902517  0.31132747  1.0
  H  H436  1  0.87299539  0.96992023  0.14483423  1.0
  H  H437  1  0.87325537  0.35160874  0.13046196  1.0
  H  H438  1  0.87546809  0.77644361  0.23804217  1.0
  H  H439  1  0.87695747  0.93246866  0.38974475  1.0
  H  H440  1  0.87857361  0.01099204  0.41638760  1.0
  H  H441  1  0.87956745  0.04402203  0.99813518  1.0
  H  H442  1  0.88064247  0.17159884  0.62805334  1.0
  H  H443  1  0.88227485  0.87233794  0.35926573  1.0
  H  H444  1  0.88350332  0.42368759  0.74737034  1.0
  H  H445  1  0.88457450  0.74355739  0.02727642  1.0
  H  H446  1  0.88524477  0.86402345  0.06702572  1.0
  H  H447  1  0.88673557  0.71043225  0.21113918  1.0
  H  H448  1  0.88706250  0.65100279  0.70323258  1.0
  H  H449  1  0.89058629  0.04049984  0.88059360  1.0
  H  H450  1  0.89151550  0.70293463  0.27317005  1.0
  H  H451  1  0.89404081  0.64870885  0.15736021  1.0
  H  H452  1  0.89429458  0.04258670  0.17726113  1.0
  H  H453  1  0.89487918  0.17311531  0.42923355  1.0
  H  H454  1  0.89542083  0.60656112  0.46112773  1.0
  H  H455  1  0.89772075  0.39039382  0.41502310  1.0
  H  H456  1  0.89784137  0.56652905  0.89656470  1.0
  H  H457  1  0.89864507  0.50392533  0.67218538  1.0
  H  H458  1  0.89947357  0.85412963  0.61741627  1.0
  H  H459  1  0.90103394  0.43925151  0.30871785  1.0
  H  H460  1  0.90444996  0.48033407  0.84774700  1.0
  H  H461  1  0.91456363  0.13939266  0.26484707  1.0
  H  H462  1  0.91470120  0.28545656  0.05567302  1.0
  H  H463  1  0.92023211  0.78738440  0.04594896  1.0
  H  H464  1  0.92454499  0.95916359  0.78596577  1.0
  H  H465  1  0.92485614  0.03037585  0.93288520  1.0
  H  H466  1  0.92613330  0.92064416  0.67226420  1.0
  H  H467  1  0.92616324  0.87835805  0.46300306  1.0
  H  H468  1  0.93016189  0.40272310  0.89604823  1.0
  H  H469  1  0.93043208  0.87939874  0.17712409  1.0
  H  H470  1  0.93212955  0.82229620  0.56104719  1.0
  H  H471  1  0.93384740  0.98959430  0.67978284  1.0
  H  H472  1  0.93640594  0.69582126  0.34491904  1.0
  H  H473  1  0.93645093  0.32590801  0.16532171  1.0
  H  H474  1  0.93662704  0.70901753  0.07070555  1.0
  H  H475  1  0.94397166  0.13052560  0.96621693  1.0
  H  H476  1  0.94494097  0.43370717  0.04642614  1.0
  H  H477  1  0.94750246  0.22158890  0.28816231  1.0
  H  H478  1  0.94862909  0.28847321  0.30798272  1.0
  H  H479  1  0.95113798  0.86762562  0.38007253  1.0
  H  H480  1  0.95344471  0.34307431  0.61691596  1.0
  H  H481  1  0.95402174  0.60201905  0.11379865  1.0
  H  H482  1  0.95655561  0.32811388  0.10069243  1.0
  H  H483  1  0.96279540  0.07753664  0.11212205  1.0
  H  H484  1  0.96783189  0.46708985  0.52328735  1.0
  H  H485  1  0.96939758  0.61763239  0.27105225  1.0
  H  H486  1  0.97179057  0.11594604  0.05214085  1.0
  H  H487  1  0.97240795  0.83707130  0.83104455  1.0
  H  H488  1  0.97457249  0.20167605  0.75038179  1.0
  H  H489  1  0.97480218  0.95931998  0.12788269  1.0
  H  H490  1  0.97539195  0.82625543  0.22013186  1.0
  H  H491  1  0.97662425  0.06332284  0.53340988  1.0
  H  H492  1  0.98195476  0.77186186  0.87629943  1.0
  H  H493  1  0.98262267  0.77576126  0.76653868  1.0
  H  H494  1  0.98345555  0.50550402  0.99588503  1.0
  H  H495  1  0.98859139  0.20144907  0.36568818  1.0
  H  H496  1  0.99021733  0.86972128  0.49200763  1.0
  H  H497  1  0.99091326  0.12556574  0.77973771  1.0
  H  H498  1  0.99347177  0.90114677  0.43030032  1.0
  H  H499  1  0.99364846  0.07860851  0.92231451  1.0
  H  H500  1  0.99422454  0.25899154  0.24268232  1.0
  H  H501  1  0.99732362  0.72568002  0.63590171  1.0
  H  H502  1  0.99805511  0.42642011  0.38063245  1.0
  H  H503  1  0.99992911  0.93501811  0.64630153  1.0
  C  C504  1  0.00256878  0.59697458  0.36503317  1.0
  C  C505  1  0.00274953  0.21790990  0.39276044  1.0
  C  C506  1  0.00591567  0.26232957  0.49260178  1.0
  C  C507  1  0.00613847  0.98588563  0.26933261  1.0
  C  C508  1  0.00788065  0.34446612  0.69630932  1.0
  C  C509  1  0.01030077  0.18692886  0.17149343  1.0
  C  C510  1  0.01238477  0.59283686  0.24543333  1.0
  C  C511  1  0.01393649  0.66730064  0.97829772  1.0
  C  C512  1  0.01571359  0.81296607  0.09755946  1.0
  C  C513  1  0.01750161  0.69440672  0.20395861  1.0
  C  C514  1  0.01888047  0.73783439  0.15943781  1.0
  C  C515  1  0.02052505  0.20889833  0.89193368  1.0
  C  C516  1  0.02160217  0.07264952  0.52302884  1.0
  C  C517  1  0.02262430  0.50679609  0.96455574  1.0
  C  C518  1  0.02491597  0.75734812  0.97372437  1.0
  C  C519  1  0.02675701  0.59278366  0.47844910  1.0
  C  C520  1  0.02801253  0.74283492  0.64872071  1.0
  C  C521  1  0.03351875  0.08658734  0.60622308  1.0
  C  C522  1  0.03465051  0.18420528  0.07011954  1.0
  C  C523  1  0.03742734  0.71530870  0.11546154  1.0
  C  C524  1  0.03788092  0.42842504  0.31231771  1.0
  C  C525  1  0.03818685  0.67653299  0.34845121  1.0
  C  C526  1  0.04298307  0.73780166  0.33644540  1.0
  C  C527  1  0.04525321  0.06962994  0.42872586  1.0
  C  C528  1  0.04629426  0.61292571  0.15523304  1.0
  C  C529  1  0.04635656  0.40708136  0.26540625  1.0
  C  C530  1  0.05162354  0.44879796  0.79296594  1.0
  C  C531  1  0.05162894  0.21839750  0.13790303  1.0
  C  C532  1  0.05252517  0.08384203  0.55327323  1.0
  C  C533  1  0.05464575  0.42534922  0.84407932  1.0
  C  C534  1  0.05961221  0.07785017  0.47379192  1.0
  C  C535  1  0.05976442  0.41518686  0.55404197  1.0
  C  C536  1  0.06444285  0.72503482  0.52064843  1.0
  C  C537  1  0.06664623  0.28337422  0.83807571  1.0
  C  C538  1  0.06745456  0.67065141  0.94399693  1.0
  C  C539  1  0.06790798  0.01464157  0.20165642  1.0
  C  C540  1  0.06857002  0.39153784  0.18629627  1.0
  C  C541  1  0.06938494  0.25765983  0.55403354  1.0
  C  C542  1  0.07265277  0.42788448  0.21984745  1.0
  C  C543  1  0.07687662  0.97533267  0.71168784  1.0
  C  C544  1  0.08168066  0.03619503  0.28081298  1.0
  C  C545  1  0.08919469  0.26181554  0.05414387  1.0
  C  C546  1  0.09026404  0.61062103  0.71601206  1.0
  C  C547  1  0.09145057  0.39814267  0.13314348  1.0
  C  C548  1  0.09217296  0.56852343  0.92404479  1.0
  C  C549  1  0.09352626  0.00970536  0.84822258  1.0
  C  C550  1  0.09447617  0.62594653  0.06776059  1.0
  C  C551  1  0.10178915  0.95239391  0.79533920  1.0
  C  C552  1  0.10327075  0.38313394  0.51197910  1.0
  C  C553  1  0.10730437  0.92319217  0.48220584  1.0
  C  C554  1  0.10755772  0.86882392  0.75598986  1.0
  C  C555  1  0.10948182  0.63166115  0.47997461  1.0
  C  C556  1  0.11281075  0.92964875  0.92242529  1.0
  C  C557  1  0.11413955  0.39232962  0.86459828  1.0
  C  C558  1  0.11536359  0.54314395  0.79158151  1.0
  C  C559  1  0.11839587  0.64228903  0.67191914  1.0
  C  C560  1  0.12100026  0.91222618  0.83532211  1.0
  C  C561  1  0.12998346  0.25361349  0.34978336  1.0
  C  C562  1  0.13203750  0.80422221  0.42759922  1.0
  C  C563  1  0.13242890  0.76643169  0.20978151  1.0
  C  C564  1  0.13945320  0.84575092  0.83443211  1.0
  C  C565  1  0.13979767  0.51797645  0.47896138  1.0
  C  C566  1  0.14100860  0.89736868  0.38833833  1.0
  C  C567  1  0.14116637  0.88130526  0.60652016  1.0
  C  C568  1  0.14743608  0.70074614  0.60592780  1.0
  C  C569  1  0.15149058  0.75898999  0.79217661  1.0
  C  C570  1  0.15208146  0.85756096  0.30093843  1.0
  C  C571  1  0.15586768  0.85366379  0.15455668  1.0
  C  C572  1  0.15967416  0.86238466  0.06831172  1.0
  C  C573  1  0.15980230  0.08230368  0.72149077  1.0
  C  C574  1  0.16041109  0.51516057  0.59709803  1.0
  C  C575  1  0.16339164  0.04555732  0.97140855  1.0
  C  C576  1  0.16439179  0.17486902  0.31013476  1.0
  C  C577  1  0.16476344  0.42546668  0.66358465  1.0
  C  C578  1  0.16480512  0.62785159  0.88093322  1.0
  C  C579  1  0.16713633  0.94783992  0.10081645  1.0
  C  C580  1  0.16722856  0.16240898  0.22497697  1.0
  C  C581  1  0.16876462  0.77146475  0.99159310  1.0
  C  C582  1  0.17039864  0.79668581  0.07373557  1.0
  C  C583  1  0.17092111  0.76370828  0.11922579  1.0
  C  C584  1  0.17645208  0.17487101  0.67013887  1.0
  C  C585  1  0.17787213  0.20394721  0.42644939  1.0
  C  C586  1  0.17927748  0.57432616  0.22522160  1.0
  C  C587  1  0.18329055  0.61594576  0.65155539  1.0
  C  C588  1  0.18343757  0.08675989  0.03874643  1.0
  C  C589  1  0.18722393  0.15235074  0.35287529  1.0
  C  C590  1  0.19150687  0.10383763  0.90862620  1.0
  C  C591  1  0.19295293  0.45611473  0.62444280  1.0
  C  C592  1  0.19297124  0.69780993  0.06924698  1.0
  C  C593  1  0.19341294  0.12774003  0.94785210  1.0
  C  C594  1  0.19643746  0.85103958  0.63186715  1.0
  C  C595  1  0.19649615  0.52895497  0.71406323  1.0
  C  C596  1  0.19889264  0.26667404  0.62318686  1.0
  C  C597  1  0.20108091  0.10580041  0.81967455  1.0
  C  C598  1  0.20113092  0.08350978  0.63254563  1.0
  C  C599  1  0.20296866  0.80096064  0.47440813  1.0
  C  C600  1  0.20486244  0.36506417  0.98701439  1.0
  C  C601  1  0.20518638  0.42655213  0.98734489  1.0
  C  C602  1  0.20987241  0.33405150  0.72734935  1.0
  C  C603  1  0.21141462  0.18279695  0.93886045  1.0
  C  C604  1  0.21170726  0.07261905  0.28405854  1.0
  C  C605  1  0.21567600  0.76274184  0.36541350  1.0
  C  C606  1  0.21639271  0.17544264  0.58276155  1.0
  C  C607  1  0.21823724  0.37466036  0.68195739  1.0
  C  C608  1  0.22024047  0.78540725  0.64884870  1.0
  C  C609  1  0.22084526  0.11117919  0.58757808  1.0
  C  C610  1  0.22359413  0.08589538  0.36224329  1.0
  C  C611  1  0.22661076  0.01598250  0.58377396  1.0
  C  C612  1  0.22690802  0.53632185  0.30140760  1.0
  C  C613  1  0.22816872  0.18009450  0.85204995  1.0
  C  C614  1  0.22958933  0.51292254  0.97375026  1.0
  C  C615  1  0.23349982  0.30848453  0.27588899  1.0
  C  C616  1  0.23702626  0.73997252  0.43708794  1.0
  C  C617  1  0.23928144  0.32617149  0.34903239  1.0
  C  C618  1  0.24036884  0.27689161  0.23462480  1.0
  C  C619  1  0.24403589  0.43786363  0.13000191  1.0
  C  C620  1  0.25080805  0.32341016  0.39781286  1.0
  C  C621  1  0.25147570  0.45018355  0.96210218  1.0
  C  C622  1  0.25503211  0.61423886  0.24239090  1.0
  C  C623  1  0.25851318  0.97957027  0.34098939  1.0
  C  C624  1  0.26228162  0.25224958  0.88249339  1.0
  C  C625  1  0.26322096  0.28102262  0.31890357  1.0
  C  C626  1  0.26355023  0.55670584  0.95219373  1.0
  C  C627  1  0.26597882  0.71664553  0.51151862  1.0
  C  C628  1  0.26716959  0.77528222  0.67439321  1.0
  C  C629  1  0.26723773  0.07106936  0.50409034  1.0
  C  C630  1  0.26929393  0.50173791  0.37909410  1.0
  C  C631  1  0.27484810  0.91283034  0.87654866  1.0
  C  C632  1  0.27561209  0.91565727  0.78604934  1.0
  C  C633  1  0.27997960  0.24467097  0.10748168  1.0
  C  C634  1  0.28053426  0.88302056  0.83508333  1.0
  C  C635  1  0.28081328  0.02957809  0.12799899  1.0
  C  C636  1  0.28468139  0.86768012  0.91479635  1.0
  C  C637  1  0.28608452  0.68738795  0.20250188  1.0
  C  C638  1  0.28641345  0.62519861  0.27261463  1.0
  C  C639  1  0.28756030  0.86949782  0.46209149  1.0
  C  C640  1  0.28898480  0.58840816  0.32076859  1.0
  C  C641  1  0.28911798  0.84568625  0.41654577  1.0
  C  C642  1  0.28940381  0.87338257  0.96383323  1.0
  C  C643  1  0.29014077  0.40168626  0.16273341  1.0
  C  C644  1  0.29081712  0.82689806  0.34645651  1.0
  C  C645  1  0.29180177  0.53278945  0.64615533  1.0
  C  C646  1  0.29324835  0.54035928  0.77747045  1.0
  C  C647  1  0.29935582  0.41823240  0.20257481  1.0
  C  C648  1  0.29999457  0.86875408  0.19872857  1.0
  C  C649  1  0.30206324  0.48217615  0.81003504  1.0
  C  C650  1  0.30403752  0.71652108  0.70030034  1.0
  C  C651  1  0.31952408  0.63421276  0.45240970  1.0
  C  C652  1  0.32275727  0.14580202  0.69306869  1.0
  C  C653  1  0.32578344  0.29040892  0.50995232  1.0
  C  C654  1  0.33052518  0.52853781  0.06694090  1.0
  C  C655  1  0.33439498  0.65751467  0.84647204  1.0
  C  C656  1  0.33690980  0.85130168  0.53354787  1.0
  C  C657  1  0.33858927  0.09326824  0.06703184  1.0
  C  C658  1  0.33949902  0.68902668  0.98445079  1.0
  C  C659  1  0.33980961  0.48959570  0.50336675  1.0
  C  C660  1  0.34079763  0.98886751  0.67073319  1.0
  C  C661  1  0.34199019  0.70501117  0.26055555  1.0
  C  C662  1  0.34589872  0.21271450  0.11938927  1.0
  C  C663  1  0.34827092  0.36410121  0.22317648  1.0
  C  C664  1  0.35056579  0.83274597  0.38748278  1.0
  C  C665  1  0.35285579  0.04508132  0.94760071  1.0
  C  C666  1  0.35538727  0.38968909  0.84894443  1.0
  C  C667  1  0.35627090  0.10250567  0.28779417  1.0
  C  C668  1  0.35808149  0.85906307  0.21765646  1.0
  C  C669  1  0.36438734  0.21773668  0.58127085  1.0
  C  C670  1  0.36599918  0.43717013  0.81643845  1.0
  C  C671  1  0.36655890  0.03474241  0.89623152  1.0
  C  C672  1  0.36890194  0.35818131  0.26933576  1.0
  C  C673  1  0.36914977  0.90712127  0.23419089  1.0
  C  C674  1  0.37044324  0.15311987  0.14849645  1.0
  C  C675  1  0.37338786  0.21754652  0.63027540  1.0
  C  C676  1  0.37486174  0.92979913  0.59787069  1.0
  C  C677  1  0.37503910  0.21441821  0.70832810  1.0
  C  C678  1  0.37946127  0.75021908  0.08562673  1.0
  C  C679  1  0.38101689  0.66491150  0.90042170  1.0
  C  C680  1  0.38360024  0.97617230  0.87824961  1.0
  C  C681  1  0.38414663  0.42648000  0.03338350  1.0
  C  C682  1  0.39371764  0.85387664  0.05674057  1.0
  C  C683  1  0.39500075  0.16304428  0.01338838  1.0
  C  C684  1  0.39543109  0.12209038  0.43585903  1.0
  C  C685  1  0.39720425  0.63918206  0.11993235  1.0
  C  C686  1  0.39867115  0.98687451  0.82849440  1.0
  C  C687  1  0.40071941  0.99071063  0.10042849  1.0
  C  C688  1  0.40078155  0.30363473  0.55335869  1.0
  C  C689  1  0.40192088  0.25622359  0.63607861  1.0
  C  C690  1  0.40330426  0.83940211  0.44852921  1.0
  C  C691  1  0.40552843  0.33520547  0.86925914  1.0
  C  C692  1  0.41076847  0.69651131  0.11175730  1.0
  C  C693  1  0.41263264  0.79193680  0.08384402  1.0
  C  C694  1  0.41597042  0.32358219  0.00667810  1.0
  C  C695  1  0.41846344  0.44128625  0.10110607  1.0
  C  C696  1  0.42445312  0.21845292  0.41163405  1.0
  C  C697  1  0.42634208  0.94260514  0.79232379  1.0
  C  C698  1  0.42699516  0.23721392  0.79814992  1.0
  C  C699  1  0.42768181  0.16347958  0.43890817  1.0
  C  C700  1  0.42802016  0.99239072  0.59402801  1.0
  C  C701  1  0.42964723  0.88109982  0.24553041  1.0
  C  C702  1  0.43015893  0.03032401  0.34347848  1.0
  C  C703  1  0.43156168  0.63499365  0.86571412  1.0
  C  C704  1  0.43259050  0.50462680  0.27417540  1.0
  C  C705  1  0.43371069  0.81009985  0.70463743  1.0
  C  C706  1  0.43445334  0.60353164  0.78486248  1.0
  C  C707  1  0.43535044  0.14117491  0.14633901  1.0
  C  C708  1  0.44449437  0.46178876  0.43982546  1.0
  C  C709  1  0.44670296  0.47283360  0.52125940  1.0
  C  C710  1  0.45018791  0.12206410  0.30022823  1.0
  C  C711  1  0.45232589  0.95939627  0.55487175  1.0
  C  C712  1  0.45575977  0.06040637  0.05470099  1.0
  C  C713  1  0.45686551  0.66845047  0.94478769  1.0
  C  C714  1  0.45814194  0.99947149  0.07913279  1.0
  C  C715  1  0.45887011  0.38061958  0.10525684  1.0
  C  C716  1  0.45909679  0.03409161  0.59825052  1.0
  C  C717  1  0.46087523  0.32881363  0.60384189  1.0
  C  C718  1  0.46114264  0.33958778  0.07245011  1.0
  C  C719  1  0.46143354  0.45461477  0.88551627  1.0
  C  C720  1  0.46224686  0.91401575  0.26115426  1.0
  C  C721  1  0.46292038  0.54925929  0.27216703  1.0
  C  C722  1  0.46301392  0.57723431  0.30933237  1.0
  C  C723  1  0.46376881  0.24177576  0.42964853  1.0
  C  C724  1  0.46725098  0.43177827  0.15849252  1.0
  C  C725  1  0.46728698  0.30335467  0.41319908  1.0
  C  C726  1  0.47171166  0.80206337  0.37128879  1.0
  C  C727  1  0.47265473  0.48433940  0.58471745  1.0
  C  C728  1  0.47733769  0.90387515  0.11645950  1.0
  C  C729  1  0.48485813  0.08671892  0.16665166  1.0
  C  C730  1  0.48652296  0.65261652  0.47719499  1.0
  C  C731  1  0.48805735  0.83247594  0.68561260  1.0
  C  C732  1  0.48892310  0.62532210  0.28596711  1.0
  C  C733  1  0.48895623  0.80636492  0.89656424  1.0
  C  C734  1  0.48965447  0.67400949  0.30946200  1.0
  C  C735  1  0.49185899  0.21519395  0.76645146  1.0
  C  C736  1  0.49483582  0.49514371  0.97849740  1.0
  C  C737  1  0.49854408  0.71360253  0.52232691  1.0
  C  C738  1  0.49895072  0.61561214  0.87289558  1.0
  C  C739  1  0.50272349  0.55558686  0.03690438  1.0
  C  C740  1  0.50321151  0.61450749  0.43767655  1.0
  C  C741  1  0.50436658  0.10526688  0.32585505  1.0
  C  C742  1  0.50524015  0.08138740  0.90654524  1.0
  C  C743  1  0.50872030  0.95100798  0.39146436  1.0
  C  C744  1  0.51373253  0.45228362  0.51113049  1.0
  C  C745  1  0.51558675  0.24735620  0.72599956  1.0
  C  C746  1  0.51653008  0.43697297  0.95825957  1.0
  C  C747  1  0.52027359  0.56352290  0.65729676  1.0
  C  C748  1  0.52057679  0.08684295  0.69880343  1.0
  C  C749  1  0.52212425  0.05001614  0.35473145  1.0
  C  C750  1  0.52368856  0.75029219  0.54225913  1.0
  C  C751  1  0.52643668  0.62040814  0.62998240  1.0
  C  C752  1  0.52714171  0.68501901  0.48122553  1.0
  C  C753  1  0.52853574  0.31595221  0.16819653  1.0
  C  C754  1  0.52866915  0.12236097  0.92219397  1.0
  C  C755  1  0.52891118  0.01075136  0.51998171  1.0
  C  C756  1  0.53138227  0.83132519  0.71100531  1.0
  C  C757  1  0.53406460  0.09125007  0.56203824  1.0
  C  C758  1  0.53462943  0.35368220  0.92475597  1.0
  C  C759  1  0.53501924  0.34285274  0.27264811  1.0
  C  C760  1  0.53839354  0.76592885  0.86159655  1.0
  C  C761  1  0.54416882  0.19518578  0.30731988  1.0
  C  C762  1  0.54476243  0.46440088  0.68976393  1.0
  C  C763  1  0.54783102  0.43205503  0.37655260  1.0
  C  C764  1  0.54902596  0.43110075  0.46350119  1.0
  C  C765  1  0.55255904  0.90678575  0.49904730  1.0
  C  C766  1  0.55937467  0.38563632  0.97964559  1.0
  C  C767  1  0.56901691  0.67357068  0.03146971  1.0
  C  C768  1  0.56990369  0.44516358  0.03447785  1.0
  C  C769  1  0.57076352  0.10359828  0.95335892  1.0
  C  C770  1  0.57183689  0.15887012  0.96636540  1.0
  C  C771  1  0.57214916  0.50338895  0.65888615  1.0
  C  C772  1  0.57521537  0.39810661  0.70206167  1.0
  C  C773  1  0.57823984  0.61280752  0.92049718  1.0
  C  C774  1  0.57859096  0.92947797  0.07228216  1.0
  C  C775  1  0.57938829  0.20564081  0.70504101  1.0
  C  C776  1  0.58121172  0.84997980  0.67607094  1.0
  C  C777  1  0.58224018  0.92848563  0.85296693  1.0
  C  C778  1  0.58307735  0.09551718  0.36406033  1.0
  C  C779  1  0.58376643  0.03690817  0.70227327  1.0
  C  C780  1  0.59677891  0.45093594  0.55796805  1.0
  C  C781  1  0.60418951  0.15699179  0.00558156  1.0
  C  C782  1  0.60469674  0.74114595  0.85784179  1.0
  C  C783  1  0.61469296  0.39692445  0.24118187  1.0
  C  C784  1  0.61637261  0.58672704  0.72942166  1.0
  C  C785  1  0.61822526  0.22175467  0.65855682  1.0
  C  C786  1  0.61923249  0.22210304  0.48597581  1.0
  C  C787  1  0.62001667  0.94440947  0.25459109  1.0
  C  C788  1  0.62147528  0.68541665  0.67473052  1.0
  C  C789  1  0.62243208  0.33358442  0.81725573  1.0
  C  C790  1  0.62313871  0.82414912  0.95744370  1.0
  C  C791  1  0.62794475  0.46237965  0.17865109  1.0
  C  C792  1  0.62981659  0.70061632  0.81952022  1.0
  C  C793  1  0.63210385  0.79774142  0.40995937  1.0
  C  C794  1  0.63215130  0.94006519  0.86962786  1.0
  C  C795  1  0.63236513  0.33298368  0.03932511  1.0
  C  C796  1  0.63238732  0.31476310  0.30815874  1.0
  C  C797  1  0.63698641  0.71689467  0.99303766  1.0
  C  C798  1  0.64139485  0.84374775  0.69015108  1.0
  C  C799  1  0.64186296  0.61871593  0.68497776  1.0
  C  C800  1  0.64284843  0.78374813  0.21084549  1.0
  C  C801  1  0.64434545  0.03484265  0.66847799  1.0
  C  C802  1  0.64454442  0.56927980  0.06333698  1.0
  C  C803  1  0.64498763  0.22123990  0.82467157  1.0
  C  C804  1  0.64775758  0.47194005  0.76153591  1.0
  C  C805  1  0.65302030  0.52567279  0.72726469  1.0
  C  C806  1  0.66238072  0.11072327  0.82918020  1.0
  C  C807  1  0.66264346  0.77035995  0.29441295  1.0
  C  C808  1  0.66301713  0.17514830  0.19293597  1.0
  C  C809  1  0.66352424  0.92389390  0.20845496  1.0
  C  C810  1  0.66666667  0.44356641  0.89364335  1.0
  C  C811  1  0.66724844  0.27968612  0.52522077  1.0
  C  C812  1  0.66972046  0.40654306  0.24321623  1.0
  C  C813  1  0.66994181  0.24509157  0.48764211  1.0
  C  C814  1  0.67445322  0.66031277  0.01259239  1.0
  C  C815  1  0.67586284  0.20514583  0.10461653  1.0
  C  C816  1  0.67696716  0.94269379  0.56035906  1.0
  C  C817  1  0.67923278  0.61412688  0.20772926  1.0
  C  C818  1  0.68155819  0.49737299  0.42226920  1.0
  C  C819  1  0.68539232  0.58091049  0.25688768  1.0
  C  C820  1  0.68556512  0.25865509  0.87740151  1.0
  C  C821  1  0.68594168  0.67553413  0.13616357  1.0
  C  C822  1  0.69204438  0.98223044  0.68283761  1.0
  C  C823  1  0.69587428  0.04343268  0.53098625  1.0
  C  C824  1  0.69622892  0.10541864  0.26671204  1.0
  C  C825  1  0.69791006  0.92829895  0.84167817  1.0
  C  C826  1  0.69876438  0.66101342  0.80443160  1.0
  C  C827  1  0.70147610  0.14935147  0.88618780  1.0
  C  C828  1  0.70338148  0.77147171  0.32634945  1.0
  C  C829  1  0.70554241  0.72092298  0.09855685  1.0
  C  C830  1  0.70581956  0.25583685  0.15817452  1.0
  C  C831  1  0.70609398  0.37090796  0.28191637  1.0
  C  C832  1  0.70804706  0.20111607  0.90232798  1.0
  C  C833  1  0.71384214  0.98664826  0.47212030  1.0
  C  C834  1  0.71889685  0.64231142  0.17681583  1.0
  C  C835  1  0.72096315  0.63249077  0.38326136  1.0
  C  C836  1  0.72131028  0.94473768  0.43774271  1.0
  C  C837  1  0.72246543  0.76718595  0.51363033  1.0
  C  C838  1  0.72387803  0.29155227  0.51303426  1.0
  C  C839  1  0.72503851  0.04044944  0.45375871  1.0
  C  C840  1  0.72708358  0.27051155  0.93273358  1.0
  C  C841  1  0.73068795  0.94134439  0.86901698  1.0
  C  C842  1  0.73240212  0.27842581  0.34334113  1.0
  C  C843  1  0.73311366  0.74129486  0.95307586  1.0
  C  C844  1  0.73327696  0.03369631  0.13684074  1.0
  C  C845  1  0.73366475  0.61647679  0.43300146  1.0
  C  C846  1  0.73427842  0.89167894  0.20201585  1.0
  C  C847  1  0.73625725  0.19137686  0.23299228  1.0
  C  C848  1  0.73671963  0.46649668  0.18404589  1.0
  C  C849  1  0.73690758  0.68542806  0.58696056  1.0
  C  C850  1  0.73723348  0.92523127  0.35207891  1.0
  C  C851  1  0.73750684  0.24423655  0.19607760  1.0
  C  C852  1  0.74185142  0.49614827  0.83850727  1.0
  C  C853  1  0.74240209  0.95375169  0.00843108  1.0
  C  C854  1  0.74490567  0.64548100  0.00610991  1.0
  C  C855  1  0.74752515  0.45026207  0.41728590  1.0
  C  C856  1  0.74784158  0.32407418  0.53789073  1.0
  C  C857  1  0.74861374  0.32521138  0.14416691  1.0
  C  C858  1  0.75066767  0.84246610  0.02039633  1.0
  C  C859  1  0.75102597  0.47416498  0.91696270  1.0
  C  C860  1  0.75170993  0.27099846  0.70868923  1.0
  C  C861  1  0.75382968  0.45310813  0.96878883  1.0
  C  C862  1  0.75443184  0.77608298  0.38181538  1.0
  C  C863  1  0.75612719  0.74985234  0.22834196  1.0
  C  C864  1  0.75628572  0.88472749  0.15354632  1.0
  C  C865  1  0.75798819  0.01240925  0.37200071  1.0
  C  C866  1  0.76143960  0.95889832  0.65905333  1.0
  C  C867  1  0.76252315  0.11081943  0.38550653  1.0
  C  C868  1  0.76292037  0.16175628  0.97655340  1.0
  C  C869  1  0.76591340  0.39954647  0.38977292  1.0
  C  C870  1  0.76842652  0.75930034  0.30806488  1.0
  C  C871  1  0.77193563  0.79751858  0.78921717  1.0
  C  C872  1  0.77466367  0.56437264  0.49973980  1.0
  C  C873  1  0.78515045  0.75247566  0.58038268  1.0
  C  C874  1  0.78549912  0.12553405  0.56387358  1.0
  C  C875  1  0.78862928  0.57292465  0.44676562  1.0
  C  C876  1  0.78878753  0.50730099  0.89078263  1.0
  C  C877  1  0.79389364  0.15782229  0.72693524  1.0
  C  C878  1  0.79421787  0.02670654  0.10069117  1.0
  C  C879  1  0.79456278  0.71137315  0.62162834  1.0
  C  C880  1  0.79688804  0.94112803  0.85354088  1.0
  C  C881  1  0.79796042  0.44708065  0.04228615  1.0
  C  C882  1  0.80442492  0.01245649  0.74745602  1.0
  C  C883  1  0.81276941  0.39079140  0.62447114  1.0
  C  C884  1  0.81383026  0.31318749  0.80890768  1.0
  C  C885  1  0.81420483  0.79992163  0.56885552  1.0
  C  C886  1  0.81730626  0.51559831  0.52979091  1.0
  C  C887  1  0.82086364  0.28546430  0.20761035  1.0
  C  C888  1  0.82439242  0.86033492  0.12726720  1.0
  C  C889  1  0.83153348  0.36965648  0.38615277  1.0
  C  C890  1  0.83161164  0.89023153  0.96441438  1.0
  C  C891  1  0.83372161  0.49963597  0.96100798  1.0
  C  C892  1  0.83497243  0.94748770  0.96034242  1.0
  C  C893  1  0.83545891  0.67261412  0.69978435  1.0
  C  C894  1  0.84027223  0.77728410  0.79319417  1.0
  C  C895  1  0.84298083  0.10101065  0.74469662  1.0
  C  C896  1  0.84406663  0.67001263  0.96596951  1.0
  C  C897  1  0.84825671  0.19490984  0.08122506  1.0
  C  C898  1  0.84902740  0.19966469  0.84565297  1.0
  C  C899  1  0.85092600  0.57377592  0.88772990  1.0
  C  C900  1  0.85173504  0.39729550  0.65571506  1.0
  C  C901  1  0.85359774  0.76287604  0.64467716  1.0
  C  C902  1  0.85918285  0.23455075  0.03602446  1.0
  C  C903  1  0.86010992  0.99496082  0.11045219  1.0
  C  C904  1  0.86393376  0.21536971  0.60485290  1.0
  C  C905  1  0.86542051  0.21202372  0.72457851  1.0
  C  C906  1  0.86609879  0.73329645  0.24443665  1.0
  C  C907  1  0.86637020  0.48343059  0.29569887  1.0
  C  C908  1  0.87075702  0.65622924  0.46284677  1.0
  C  C909  1  0.87104089  0.03932565  0.52290054  1.0
  C  C910  1  0.87151476  0.72463164  0.82571526  1.0
  C  C911  1  0.87258984  0.04532578  0.60585574  1.0
  C  C912  1  0.87283209  0.31886492  0.35735897  1.0
  C  C913  1  0.87803170  0.02319381  0.21436195  1.0
  C  C914  1  0.88252807  0.54851282  0.21564333  1.0
  C  C915  1  0.88363551  0.01088926  0.45328547  1.0
  C  C916  1  0.88372892  0.84392998  0.93476704  1.0
  C  C917  1  0.88553804  0.02583455  0.92006132  1.0
  C  C918  1  0.88674346  0.84419436  0.58628720  1.0
  C  C919  1  0.88744647  0.44451812  0.21637584  1.0
  C  C920  1  0.89372101  0.27676294  0.02889286  1.0
  C  C921  1  0.89583743  0.30195044  0.98149834  1.0
  C  C922  1  0.89918148  0.10294859  0.75275569  1.0
  C  C923  1  0.90217112  0.00166369  0.06782372  1.0
  C  C924  1  0.90412976  0.74835083  0.45774955  1.0
  C  C925  1  0.90414484  0.61225201  0.13514758  1.0
  C  C926  1  0.90436983  0.45169714  0.16292686  1.0
  C  C927  1  0.90670739  0.00827356  0.77306520  1.0
  C  C928  1  0.90870586  0.50651215  0.13920853  1.0
  C  C929  1  0.90927882  0.89958453  0.36392055  1.0
  C  C930  1  0.91027419  0.19190891  0.45381827  1.0
  C  C931  1  0.91240516  0.93483908  0.27413193  1.0
  C  C932  1  0.91261177  0.54060273  0.60490495  1.0
  C  C933  1  0.91510412  0.24794252  0.84518060  1.0
  C  C934  1  0.91670507  0.98078934  0.52442640  1.0
  C  C935  1  0.92090912  0.21733316  0.51840070  1.0
  C  C936  1  0.92130192  0.35162974  0.13114957  1.0
  C  C937  1  0.92216841  0.36767618  0.64760481  1.0
  C  C938  1  0.92546153  0.34669768  0.95483348  1.0
  C  C939  1  0.92866547  0.74159740  0.03760065  1.0
  C  C940  1  0.93154909  0.44998787  0.08209654  1.0
  C  C941  1  0.93177231  0.19179104  0.87322773  1.0
  C  C942  1  0.93513350  0.71940283  0.81655439  1.0
  C  C943  1  0.93700033  0.91794830  0.90194075  1.0
  C  C944  1  0.94122549  0.37369790  0.68704819  1.0
  C  C945  1  0.94341295  0.14946317  0.22946528  1.0
  C  C946  1  0.94487249  0.95358922  0.56831573  1.0
  C  C947  1  0.94637697  0.95634777  0.65416239  1.0
  C  C948  1  0.95646727  0.50958221  0.74835791  1.0
  C  C949  1  0.95656553  0.28452765  0.83616276  1.0
  C  C950  1  0.95733957  0.56357371  0.37469871  1.0
  C  C951  1  0.96041265  0.89921659  0.46551569  1.0
  C  C952  1  0.96330824  0.23604334  0.48130938  1.0
  C  C953  1  0.96666394  0.23689548  0.57811241  1.0
  C  C954  1  0.97205592  0.96519953  0.31656107  1.0
  C  C955  1  0.97300712  0.48770723  0.59315949  1.0
  C  C956  1  0.97396148  0.97967172  0.05814879  1.0
  C  C957  1  0.97625630  0.15591106  0.74685479  1.0
  C  C958  1  0.97933747  0.84751749  0.18214735  1.0
  C  C959  1  0.98007262  0.65624367  0.47326253  1.0
  C  C960  1  0.98280362  0.81855876  0.86779991  1.0
  C  C961  1  0.98416218  0.66315337  0.35113980  1.0
  C  C962  1  0.98688766  0.47591618  0.79061547  1.0
  C  C963  1  0.98747178  0.67206048  0.83894136  1.0
  C  C964  1  0.98752615  0.15269206  0.15257016  1.0
  C  C965  1  0.98767983  0.98280766  0.22827674  1.0
  C  C966  1  0.98817108  0.11954888  0.93751174  1.0
  C  C967  1  0.99041164  0.21412738  0.25838246  1.0
  C  C968  1  0.99350442  0.45763990  0.55291668  1.0
  C  C969  1  0.99475033  0.09741227  0.08425065  1.0
  C  C970  1  0.99991597  0.61056635  0.98777760  1.0
  C  C971  1  0.99995195  0.70282980  0.47524560  1.0
  N  N972  1  0.00489370  0.80090524  0.14810733  1.0
  N  N973  1  0.00538072  0.14546998  0.10242788  1.0
  N  N974  1  0.01216917  0.25478024  0.54123559  1.0
  N  N975  1  0.01276342  0.26027858  0.85649728  1.0
  N  N976  1  0.02295071  0.45845256  0.61940195  1.0
  N  N977  1  0.02399243  0.63415925  0.20101993  1.0
  N  N978  1  0.02750394  0.99863866  0.18606348  1.0
  N  N979  1  0.02851631  0.36056883  0.25815248  1.0
  N  N980  1  0.03531853  0.76236563  0.07718283  1.0
  N  N981  1  0.03815464  0.56270146  0.95897464  1.0
  N  N982  1  0.04244783  0.35070164  0.21044711  1.0
  N  N983  1  0.05532411  0.01005339  0.25228187  1.0
  N  N984  1  0.05601921  0.65220335  0.11274570  1.0
  N  N985  1  0.05817747  0.22077927  0.08748374  1.0
  N  N986  1  0.06168493  0.69053568  0.48493909  1.0
  N  N987  1  0.06451132  0.57189839  0.36937900  1.0
  N  N988  1  0.07420710  0.72696886  0.94138768  1.0
  N  N989  1  0.07629151  0.41530305  0.59514592  1.0
  N  N990  1  0.08557472  0.01301718  0.80361651  1.0
  N  N991  1  0.08620953  0.62007049  0.35956592  1.0
  N  N992  1  0.09203492  0.58165555  0.47875605  1.0
  N  N993  1  0.09520662  0.69736450  0.64286850  1.0
  N  N994  1  0.09693479  0.93144373  0.75426324  1.0
  N  N995  1  0.10595199  0.09520774  0.52251875  1.0
  N  N996  1  0.10830188  0.62130158  0.91714573  1.0
  N  N997  1  0.11047661  0.09108258  0.47459791  1.0
  N  N998  1  0.11416650  0.94901873  0.86991440  1.0
  N  N999  1  0.12795676  0.23791641  0.30877508  1.0
  N  N1000  1  0.13187439  0.55690309  0.73845057  1.0
  N  N1001  1  0.13468788  0.82518820  0.79336378  1.0
  N  N1002  1  0.15438042  0.88082355  0.44821663  1.0
  N  N1003  1  0.15660261  0.79340225  0.16098154  1.0
  N  N1004  1  0.15913131  0.47339253  0.01394040  1.0
  N  N1005  1  0.16263399  0.88662369  0.10795033  1.0
  N  N1006  1  0.16653622  0.20317282  0.37805003  1.0
  N  N1007  1  0.16970710  0.84040213  0.34892385  1.0
  N  N1008  1  0.17162474  0.05335180  0.92357388  1.0
  N  N1009  1  0.17453378  0.52501444  0.00611988  1.0
  N  N1010  1  0.17731039  0.11487340  0.67403984  1.0
  N  N1011  1  0.17734720  0.08882907  0.98835365  1.0
  N  N1012  1  0.17883760  0.13616812  0.27427198  1.0
  N  N1013  1  0.18112672  0.75536134  0.04179545  1.0
  N  N1014  1  0.18584297  0.70166660  0.11585054  1.0
  N  N1015  1  0.19626254  0.20539182  0.62489180  1.0
  N  N1016  1  0.19626572  0.36675535  0.27945617  1.0
  N  N1017  1  0.19975773  0.37732289  0.32362893  1.0
  N  N1018  1  0.20131650  0.65270023  0.61024039  1.0
  N  N1019  1  0.20498594  0.02412317  0.63006274  1.0
  N  N1020  1  0.20703989  0.13022356  0.86054766  1.0
  N  N1021  1  0.22331950  0.55864558  0.67121953  1.0
  N  N1022  1  0.22370817  0.57157645  0.25573662  1.0
  N  N1023  1  0.22660035  0.77472779  0.51729270  1.0
  N  N1024  1  0.22835102  0.87879535  0.64545825  1.0
  N  N1025  1  0.23003800  0.04677218  0.32919961  1.0
  N  N1026  1  0.23182547  0.20578040  0.89078922  1.0
  N  N1027  1  0.23937156  0.06676437  0.55643110  1.0
  N  N1028  1  0.24499896  0.82973438  0.39429669  1.0
  N  N1029  1  0.25556338  0.46259191  0.83670421  1.0
  N  N1030  1  0.25674134  0.65155922  0.19841466  1.0
  N  N1031  1  0.25977288  0.42172094  0.61855077  1.0
  N  N1032  1  0.25995068  0.54376812  0.33376770  1.0
  N  N1033  1  0.27058655  0.83305952  0.67141887  1.0
  N  N1034  1  0.27329960  0.69405008  0.46749164  1.0
  N  N1035  1  0.27496630  0.37355142  0.65433208  1.0
  N  N1036  1  0.28766443  0.40580201  0.85917906  1.0
  N  N1037  1  0.29237262  0.82356787  0.84745169  1.0
  N  N1038  1  0.29388309  0.81451409  0.89599623  1.0
  N  N1039  1  0.30810580  0.67194117  0.24599615  1.0
  N  N1040  1  0.32041566  0.67812083  0.88886621  1.0
  N  N1041  1  0.33427321  0.34149068  0.15961166  1.0
  N  N1042  1  0.34007996  0.03869866  0.09789622  1.0
  N  N1043  1  0.34377865  0.85084516  0.48122545  1.0
  N  N1044  1  0.35005115  0.82416628  0.34238173  1.0
  N  N1045  1  0.35652102  0.18998819  0.67697732  1.0
  N  N1046  1  0.36770986  0.26794518  0.54653115  1.0
  N  N1047  1  0.36869885  0.31827675  0.19651125  1.0
  N  N1048  1  0.36954743  0.07812273  0.85946771  1.0
  N  N1049  1  0.37769131  0.46487420  0.06698112  1.0
  N  N1050  1  0.37856650  0.97270357  0.62225646  1.0
  N  N1051  1  0.38803198  0.04945499  0.81850319  1.0
  N  N1052  1  0.39252894  0.67910536  0.94162952  1.0
  N  N1053  1  0.39333961  0.23446847  0.10186723  1.0
  N  N1054  1  0.39623921  0.10504797  0.04514847  1.0
  N  N1055  1  0.40173670  0.63039697  0.83073542  1.0
  N  N1056  1  0.40242228  0.25439162  0.68483281  1.0
  N  N1057  1  0.40700068  0.83135970  0.40069846  1.0
  N  N1058  1  0.40880452  0.80672745  0.21953952  1.0
  N  N1059  1  0.41080328  0.47489927  0.48728691  1.0
  N  N1060  1  0.41313259  0.93089964  0.12382752  1.0
  N  N1061  1  0.41373754  0.08377757  0.31000910  1.0
  N  N1062  1  0.41869771  0.92079176  0.55713556  1.0
  N  N1063  1  0.42062649  0.36320800  0.03804318  1.0
  N  N1064  1  0.42132119  0.49226882  0.56738328  1.0
  N  N1065  1  0.42362222  0.29402456  0.59654348  1.0
  N  N1066  1  0.42427845  0.47350579  0.13404037  1.0
  N  N1067  1  0.43561872  0.66142516  0.51383793  1.0
  N  N1068  1  0.44240425  0.69903000  0.54096039  1.0
  N  N1069  1  0.44687335  0.19228260  0.11876752  1.0
  N  N1070  1  0.45197812  0.81968476  0.23737365  1.0
  N  N1071  1  0.45751375  0.70857200  0.12755817  1.0
  N  N1072  1  0.45957375  0.76603704  0.10951962  1.0
  N  N1073  1  0.46528377  0.56078486  0.68503136  1.0
  N  N1074  1  0.46905668  0.15476619  0.47017851  1.0
  N  N1075  1  0.48013517  0.50092563  0.70534502  1.0
  N  N1076  1  0.48815153  0.00999781  0.36118414  1.0
  N  N1077  1  0.48892016  0.37386615  0.14347620  1.0
  N  N1078  1  0.49054816  0.20222145  0.46488556  1.0
  N  N1079  1  0.49060066  0.57798711  0.22986974  1.0
  N  N1080  1  0.50253257  0.41720974  0.92127779  1.0
  N  N1081  1  0.50526215  0.62478431  0.23830210  1.0
  N  N1082  1  0.50558301  0.04648303  0.55896889  1.0
  N  N1083  1  0.50722905  0.96313090  0.52017136  1.0
  N  N1084  1  0.50773988  0.94391408  0.08896987  1.0
  N  N1085  1  0.50984412  0.85545515  0.63817822  1.0
  N  N1086  1  0.51088568  0.63495398  0.91155523  1.0
  N  N1087  1  0.51233006  0.18595394  0.91248513  1.0
  N  N1088  1  0.51329556  0.44118151  0.42726406  1.0
  N  N1089  1  0.52292108  0.49818258  0.01587068  1.0
  N  N1090  1  0.52587353  0.74130290  0.82657958  1.0
  N  N1091  1  0.53092923  0.46005382  0.55199576  1.0
  N  N1092  1  0.53793085  0.20803943  0.94009736  1.0
  N  N1093  1  0.54143005  0.15751784  0.76933881  1.0
  N  N1094  1  0.54392513  0.13444587  0.33128444  1.0
  N  N1095  1  0.56687973  0.86559738  0.63210279  1.0
  N  N1096  1  0.56866666  0.33370865  0.95951077  1.0
  N  N1097  1  0.57102416  0.72500610  0.00480387  1.0
  N  N1098  1  0.57216309  0.04365228  0.37762955  1.0
  N  N1099  1  0.58121226  0.70126891  0.80172172  1.0
  N  N1100  1  0.58710983  0.38874669  0.01727050  1.0
  N  N1101  1  0.58843065  0.43282180  0.20116430  1.0
  N  N1102  1  0.59319967  0.35361386  0.27514176  1.0
  N  N1103  1  0.59430851  0.15153313  0.73181631  1.0
  N  N1104  1  0.59455632  0.98932783  0.73630515  1.0
  N  N1105  1  0.62560215  0.96067638  0.91103721  1.0
  N  N1106  1  0.62964611  0.62530289  0.18303230  1.0
  N  N1107  1  0.63065576  0.63162783  0.03695610  1.0
  N  N1108  1  0.63188282  0.66454029  0.14098501  1.0
  N  N1109  1  0.64422020  0.93467309  0.16654638  1.0
  N  N1110  1  0.65292475  0.27019662  0.83898066  1.0
  N  N1111  1  0.66022598  0.95663503  0.72487213  1.0
  N  N1112  1  0.66497534  0.75963069  0.96635289  1.0
  N  N1113  1  0.67107348  0.16052517  0.84651570  1.0
  N  N1114  1  0.67484645  0.21708777  0.15324324  1.0
  N  N1115  1  0.67899929  0.44837548  0.20269551  1.0
  N  N1116  1  0.68539688  0.96191014  0.91070453  1.0
  N  N1117  1  0.68834985  0.76571197  0.24468774  1.0
  N  N1118  1  0.68920732  0.57992953  0.65680032  1.0
  N  N1119  1  0.68944281  0.32223012  0.31106410  1.0
  N  N1120  1  0.69182424  0.63607633  0.47647691  1.0
  N  N1121  1  0.69400450  0.78206293  0.37420862  1.0
  N  N1122  1  0.69509254  0.98843086  0.52237949  1.0
  N  N1123  1  0.69583471  0.15995218  0.23176365  1.0
  N  N1124  1  0.69654030  0.52366120  0.68285002  1.0
  N  N1125  1  0.69906976  0.30113420  0.89570160  1.0
  N  N1126  1  0.70032678  0.91061977  0.13333443  1.0
  N  N1127  1  0.71174331  0.30719161  0.12649520  1.0
  N  N1128  1  0.71268319  0.07598370  0.49067684  1.0
  N  N1129  1  0.71618324  0.60324317  0.51691427  1.0
  N  N1130  1  0.71870630  0.46901006  0.88365067  1.0
  N  N1131  1  0.72465934  0.23711091  0.45495443  1.0
  N  N1132  1  0.73439462  0.20877591  0.93837818  1.0
  N  N1133  1  0.73925294  0.96100616  0.38765295  1.0
  N  N1134  1  0.74736410  0.73634920  0.55830827  1.0
  N  N1135  1  0.74827273  0.05410791  0.40385406  1.0
  N  N1136  1  0.75654584  0.26638177  0.46961322  1.0
  N  N1137  1  0.76522351  0.66896375  0.62492499  1.0
  N  N1138  1  0.76687163  0.28799990  0.18645769  1.0
  N  N1139  1  0.77299127  0.89358101  0.99673863  1.0
  N  N1140  1  0.77353256  0.68428871  0.97302047  1.0
  N  N1141  1  0.77804529  0.98708173  0.98631326  1.0
  N  N1142  1  0.78405658  0.51959184  0.84179930  1.0
  N  N1143  1  0.79437971  0.46751873  0.99030995  1.0
  N  N1144  1  0.79618380  0.74570941  0.26003660  1.0
  N  N1145  1  0.79695539  0.04995183  0.05457450  1.0
  N  N1146  1  0.79852928  0.44970184  0.43173360  1.0
  N  N1147  1  0.80036767  0.76206029  0.34275414  1.0
  N  N1148  1  0.80426863  0.21323351  0.72104456  1.0
  N  N1149  1  0.82747720  0.52385493  0.91264428  1.0
  N  N1150  1  0.82877579  0.71542854  0.65463457  1.0
  N  N1151  1  0.83006534  0.42460737  0.69599342  1.0
  N  N1152  1  0.84068487  0.23528434  0.99577859  1.0
  N  N1153  1  0.84727277  0.07246035  0.56330807  1.0
  N  N1154  1  0.84842728  0.03983717  0.75592627  1.0
  N  N1155  1  0.84918406  0.80335800  0.60127529  1.0
  N  N1156  1  0.85021930  0.40136637  0.41205457  1.0
  N  N1157  1  0.85228705  0.05867681  0.47788548  1.0
  N  N1158  1  0.85877953  0.25533175  0.83048333  1.0
  N  N1159  1  0.86153711  0.27726209  0.96291758  1.0
  N  N1160  1  0.86200426  0.03440300  0.03445455  1.0
  N  N1161  1  0.87928061  0.49250847  0.24187943  1.0
  N  N1162  1  0.88206483  0.80280203  0.76634195  1.0
  N  N1163  1  0.88476574  0.41197607  0.71439406  1.0
  N  N1164  1  0.88757270  0.19033644  0.50109434  1.0
  N  N1165  1  0.88874020  0.96172201  0.93101436  1.0
  N  N1166  1  0.89091903  0.16118662  0.87259223  1.0
  N  N1167  1  0.89746509  0.55581848  0.16439392  1.0
  N  N1168  1  0.91272106  0.15761477  0.74151678  1.0
  N  N1169  1  0.91712991  0.68524654  0.46368761  1.0
  N  N1170  1  0.91778069  0.22310223  0.56682542  1.0
  N  N1171  1  0.91880742  0.41518371  0.12614555  1.0
  N  N1172  1  0.92137672  0.98613321  0.60889296  1.0
  N  N1173  1  0.92354515  0.96136619  0.48014688  1.0
  N  N1174  1  0.92512940  0.50522650  0.08895640  1.0
  N  N1175  1  0.93144813  0.96999271  0.23154094  1.0
  N  N1176  1  0.93269100  0.93185075  0.31743098  1.0
  N  N1177  1  0.93546405  0.85923685  0.90374801  1.0
  N  N1178  1  0.93793455  0.04513099  0.77163646  1.0
  N  N1179  1  0.93990404  0.76788181  0.78084504  1.0
  N  N1180  1  0.94467822  0.13080418  0.18883058  1.0
  N  N1181  1  0.95272729  0.76023887  0.46525814  1.0
  N  N1182  1  0.95455820  0.46554143  0.83802343  1.0
  N  N1183  1  0.95731130  0.21914799  0.43976455  1.0
  N  N1184  1  0.98300275  0.18410770  0.22114147  1.0
  N  N1185  1  0.98309084  0.17187052  0.89885054  1.0
  N  N1186  1  0.98612274  0.72300113  0.99778570  1.0
  N  N1187  1  0.99527532  0.43678676  0.87051248  1.0
  O  O1188  1  0.00170491  0.98516037  0.01539396  1.0
  O  O1189  1  0.00402273  0.40455060  0.35320070  1.0
  O  O1190  1  0.00572324  0.95575816  0.09681319  1.0
  O  O1191  1  0.00975039  0.71147413  0.24351682  1.0
  O  O1192  1  0.01007676  0.55034879  0.47649049  1.0
  O  O1193  1  0.02984132  0.37352939  0.72101435  1.0
  O  O1194  1  0.03112574  0.63145742  0.73284557  1.0
  O  O1195  1  0.03594465  0.28896546  0.45966069  1.0
  O  O1196  1  0.03936011  0.18564394  0.02604186  1.0
  O  O1197  1  0.04012626  0.29385248  0.68200612  1.0
  O  O1198  1  0.04133072  0.67673334  0.82689253  1.0
  O  O1199  1  0.05812935  0.55862999  0.15205323  1.0
  O  O1200  1  0.05909975  0.19843147  0.91865398  1.0
  O  O1201  1  0.06165743  0.46667610  0.31237127  1.0
  O  O1202  1  0.06582834  0.11022621  0.62640434  1.0
  O  O1203  1  0.07654750  0.24568931  0.15420409  1.0
  O  O1204  1  0.08009674  0.39550026  0.46959034  1.0
  O  O1205  1  0.08090975  0.45627094  0.10872420  1.0
  O  O1206  1  0.08811931  0.07515783  0.38597212  1.0
  O  O1207  1  0.09133269  0.85201160  0.72475784  1.0
  O  O1208  1  0.09203618  0.74327514  0.34219420  1.0
  O  O1209  1  0.09456615  0.54564912  0.61193288  1.0
  O  O1210  1  0.10686748  0.37143598  0.91353423  1.0
  O  O1211  1  0.10767195  0.94985581  0.37460076  1.0
  O  O1212  1  0.10776205  0.84572301  0.60307840  1.0
  O  O1213  1  0.11868028  0.35078889  0.11327518  1.0
  O  O1214  1  0.12531041  0.52636650  0.89882155  1.0
  O  O1215  1  0.12625588  0.93639233  0.59123861  1.0
  O  O1216  1  0.14717560  0.87812785  0.19094771  1.0
  O  O1217  1  0.15110800  0.89431225  0.02903442  1.0
  O  O1218  1  0.15426343  0.35566188  0.00660213  1.0
  O  O1219  1  0.15669300  0.80926028  0.87018470  1.0
  O  O1220  1  0.15844456  0.32429132  0.74028202  1.0
  O  O1221  1  0.15892005  0.34853314  0.51643829  1.0
  O  O1222  1  0.15983989  0.20014645  0.70756281  1.0
  O  O1223  1  0.16670753  0.62459451  0.47820203  1.0
  O  O1224  1  0.16711489  0.38384629  0.83661344  1.0
  O  O1225  1  0.19525073  0.53551708  0.56354480  1.0
  O  O1226  1  0.19880224  0.49924977  0.31346975  1.0
  O  O1227  1  0.20101018  0.49530597  0.14039148  1.0
  O  O1228  1  0.20474686  0.30927330  0.19925881  1.0
  O  O1229  1  0.21179133  0.20651837  0.97331153  1.0
  O  O1230  1  0.22592280  0.03940877  0.25186809  1.0
  O  O1231  1  0.22689288  0.20278652  0.54169712  1.0
  O  O1232  1  0.22703832  0.72311838  0.33972015  1.0
  O  O1233  1  0.22773708  0.37734472  0.41810019  1.0
  O  O1234  1  0.22976304  0.47730086  0.73054661  1.0
  O  O1235  1  0.23077218  0.22416979  0.13233684  1.0
  O  O1236  1  0.24054423  0.91127258  0.48128479  1.0
  O  O1237  1  0.24104236  0.58386870  0.78345647  1.0
  O  O1238  1  0.24294920  0.20179593  0.80962633  1.0
  O  O1239  1  0.24323944  0.61057643  0.97233913  1.0
  O  O1240  1  0.24606728  0.06496734  0.39956033  1.0
  O  O1241  1  0.24666271  0.41435491  0.09473975  1.0
  O  O1242  1  0.25245500  0.91663925  0.20521027  1.0
  O  O1243  1  0.25872765  0.31140991  0.75349473  1.0
  O  O1244  1  0.26038662  0.32199095  0.96459626  1.0
  O  O1245  1  0.27244084  0.88901364  0.75473060  1.0
  O  O1246  1  0.27245498  0.28877992  0.07562317  1.0
  O  O1247  1  0.27541160  0.97445827  0.77807872  1.0
  O  O1248  1  0.27703092  0.22289546  0.23420250  1.0
  O  O1249  1  0.27708983  0.27255303  0.41902792  1.0
  O  O1250  1  0.28289098  0.92977340  0.97330335  1.0
  O  O1251  1  0.28580283  0.13198911  0.05940078  1.0
  O  O1252  1  0.30000782  0.66295339  0.69243568  1.0
  O  O1253  1  0.30103896  0.82679247  0.99326300  1.0
  O  O1254  1  0.30327260  0.82344404  0.17411579  1.0
  O  O1255  1  0.30736485  0.54339420  0.91603397  1.0
  O  O1256  1  0.31876727  0.59556135  0.34821047  1.0
  O  O1257  1  0.32821213  0.89036777  0.06458850  1.0
  O  O1258  1  0.33573659  0.71887231  0.72838883  1.0
  O  O1259  1  0.34062008  0.10354051  0.95601576  1.0
  O  O1260  1  0.34489056  0.54179243  0.74090801  1.0
  O  O1261  1  0.34892750  0.40422442  0.29038073  1.0
  O  O1262  1  0.35070265  0.14226283  0.40586005  1.0
  O  O1263  1  0.35286453  0.17543842  0.57165644  1.0
  O  O1264  1  0.35491119  0.00183585  0.97991367  1.0
  O  O1265  1  0.35669600  0.63781842  0.09917634  1.0
  O  O1266  1  0.36073772  0.44974917  0.99691895  1.0
  O  O1267  1  0.38643035  0.29844204  0.90913909  1.0
  O  O1268  1  0.38861861  0.28849802  0.78585057  1.0
  O  O1269  1  0.39420656  0.00005039  0.35716000  1.0
  O  O1270  1  0.39942625  0.51338704  0.23781846  1.0
  O  O1271  1  0.40141161  0.81255898  0.67540225  1.0
  O  O1272  1  0.40698488  0.30053858  0.28724480  1.0
  O  O1273  1  0.41018177  0.34366502  0.52086485  1.0
  O  O1274  1  0.41050564  0.07145983  0.46033947  1.0
  O  O1275  1  0.41243773  0.19947761  0.83886894  1.0
  O  O1276  1  0.41268864  0.46886960  0.40874281  1.0
  O  O1277  1  0.42095037  0.34505436  0.38778230  1.0
  O  O1278  1  0.42328174  0.78612277  0.75282687  1.0
  O  O1279  1  0.42372042  0.89093841  0.80460942  1.0
  O  O1280  1  0.42606282  0.81017470  0.90176141  1.0
  O  O1281  1  0.43070623  0.59041931  0.14966195  1.0
  O  O1282  1  0.43495214  0.17096242  0.27297254  1.0
  O  O1283  1  0.43554767  0.97652665  0.25490874  1.0
  O  O1284  1  0.43702030  0.86957283  0.02864102  1.0
  O  O1285  1  0.43746451  0.46298479  0.30781228  1.0
  O  O1286  1  0.44556752  0.05582090  0.63677970  1.0
  O  O1287  1  0.44785962  0.68970691  0.34619945  1.0
  O  O1288  1  0.44851666  0.53861759  0.96495801  1.0
  O  O1289  1  0.45224812  0.83666238  0.46147721  1.0
  O  O1290  1  0.45398312  0.96207877  0.74649855  1.0
  O  O1291  1  0.46256479  0.32465122  0.84791541  1.0
  O  O1292  1  0.46543015  0.68839259  0.97791270  1.0
  O  O1293  1  0.47208050  0.58141903  0.44114036  1.0
  O  O1294  1  0.47312881  0.08516088  0.73072521  1.0
  O  O1295  1  0.47859764  0.67465838  0.64411341  1.0
  O  O1296  1  0.48049013  0.03669955  0.16804161  1.0
  O  O1297  1  0.48840840  0.77789557  0.57702201  1.0
  O  O1298  1  0.48875738  0.04444722  0.93871546  1.0
  O  O1299  1  0.50120003  0.28661553  0.07392371  1.0
  O  O1300  1  0.50260073  0.08606637  0.85843694  1.0
  O  O1301  1  0.50526081  0.07279374  0.04734125  1.0
  O  O1302  1  0.50549024  0.83526472  0.91830701  1.0
  O  O1303  1  0.50943513  0.31508749  0.42459811  1.0
  O  O1304  1  0.51203019  0.88475637  0.27748957  1.0
  O  O1305  1  0.51917229  0.13415757  0.66157600  1.0
  O  O1306  1  0.52459376  0.95434785  0.87057948  1.0
  O  O1307  1  0.53526999  0.70073604  0.28758506  1.0
  O  O1308  1  0.53527608  0.09402202  0.17976588  1.0
  O  O1309  1  0.53655182  0.36623670  0.72922915  1.0
  O  O1310  1  0.54392919  0.58162712  0.84537413  1.0
  O  O1311  1  0.55319468  0.61736882  0.39921697  1.0
  O  O1312  1  0.56126229  0.99204384  0.25244764  1.0
  O  O1313  1  0.56840627  0.22700121  0.52533443  1.0
  O  O1314  1  0.56939929  0.02084043  0.48493795  1.0
  O  O1315  1  0.57448102  0.61665146  0.59706712  1.0
  O  O1316  1  0.58569110  0.74957669  0.52243604  1.0
  O  O1317  1  0.58964409  0.71204239  0.64260332  1.0
  O  O1318  1  0.59132325  0.47827584  0.79581755  1.0
  O  O1319  1  0.59524510  0.44773334  0.06707864  1.0
  O  O1320  1  0.60349190  0.88803557  0.81916052  1.0
  O  O1321  1  0.60684500  0.77180453  0.31183574  1.0
  O  O1322  1  0.60905734  0.40573934  0.45604644  1.0
  O  O1323  1  0.60967669  0.20444308  0.01060350  1.0
  O  O1324  1  0.61388313  0.23257990  0.79231127  1.0
  O  O1325  1  0.61402724  0.28192664  0.64658695  1.0
  O  O1326  1  0.61536917  0.27438019  0.33562957  1.0
  O  O1327  1  0.62442969  0.15070628  0.19235320  1.0
  O  O1328  1  0.62503604  0.19967394  0.44912615  1.0
  O  O1329  1  0.62626134  0.10215012  0.03446700  1.0
  O  O1330  1  0.63376160  0.37447478  0.68610097  1.0
  O  O1331  1  0.63906760  0.91810620  0.29264853  1.0
  O  O1332  1  0.64293455  0.55104246  0.27966621  1.0
  O  O1333  1  0.64339779  0.71351310  0.70004262  1.0
  O  O1334  1  0.64595502  0.82200315  0.73788882  1.0
  O  O1335  1  0.64923962  0.50785209  0.38479076  1.0
  O  O1336  1  0.65010655  0.18100062  0.63189292  1.0
  O  O1337  1  0.65911028  0.52559358  0.45828069  1.0
  O  O1338  1  0.66223459  0.76228936  0.07978805  1.0
  O  O1339  1  0.66367960  0.65609748  0.37843798  1.0
  O  O1340  1  0.68184699  0.05174347  0.12211237  1.0
  O  O1341  1  0.68476590  0.85596255  0.65921184  1.0
  O  O1342  1  0.69432993  0.42319249  0.75632886  1.0
  O  O1343  1  0.71119168  0.89636680  0.45278647  1.0
  O  O1344  1  0.71422836  0.62636936  0.76689632  1.0
  O  O1345  1  0.72135612  0.09728321  0.90819962  1.0
  O  O1346  1  0.72222528  0.33336834  0.58042036  1.0
  O  O1347  1  0.72345935  0.42012420  0.99198548  1.0
  O  O1348  1  0.72687377  0.58382875  0.27559476  1.0
  O  O1349  1  0.73354376  0.78267185  0.82348881  1.0
  O  O1350  1  0.73712294  0.01998301  0.18515518  1.0
  O  O1351  1  0.73876059  0.65961207  0.82699330  1.0
  O  O1352  1  0.74450642  0.15638316  0.71744285  1.0
  O  O1353  1  0.74620418  0.40976984  0.63928727  1.0
  O  O1354  1  0.75242408  0.38247840  0.28660674  1.0
  O  O1355  1  0.75485025  0.83239631  0.74702081  1.0
  O  O1356  1  0.75699707  0.77691948  0.92480706  1.0
  O  O1357  1  0.76967894  0.17591872  0.26462164  1.0
  O  O1358  1  0.76983911  0.71605191  0.08775625  1.0
  O  O1359  1  0.77334125  0.61723138  0.34546685  1.0
  O  O1360  1  0.77604109  0.60258671  0.03302153  1.0
  O  O1361  1  0.77620657  0.97965356  0.61658461  1.0
  O  O1362  1  0.78045331  0.74081454  0.18549808  1.0
  O  O1363  1  0.78670899  0.01971918  0.32985400  1.0
  O  O1364  1  0.79982387  0.34014086  0.51199259  1.0
  O  O1365  1  0.80225329  0.51749181  0.57926106  1.0
  O  O1366  1  0.80532892  0.91438698  0.68482696  1.0
  O  O1367  1  0.80717365  0.99118962  0.86098959  1.0
  O  O1368  1  0.80895627  0.83510087  0.53061808  1.0
  O  O1369  1  0.82655136  0.14896562  0.08087288  1.0
  O  O1370  1  0.83898648  0.89754502  0.83325903  1.0
  O  O1371  1  0.83937480  0.88586219  0.08044156  1.0
  O  O1372  1  0.84250947  0.36740008  0.58660755  1.0
  O  O1373  1  0.85073469  0.07439186  0.64118828  1.0
  O  O1374  1  0.85763890  0.27345623  0.36360022  1.0
  O  O1375  1  0.86117012  0.20430759  0.11713102  1.0
  O  O1376  1  0.86351930  0.47469733  0.50902743  1.0
  O  O1377  1  0.86426472  0.81816461  0.14819876  1.0
  O  O1378  1  0.87070555  0.59245036  0.23758524  1.0
  O  O1379  1  0.87466661  0.90962932  0.27305981  1.0
  O  O1380  1  0.87632281  0.50470825  0.97736375  1.0
  O  O1381  1  0.87782301  0.25946545  0.71224855  1.0
  O  O1382  1  0.87792765  0.54156828  0.65194657  1.0
  O  O1383  1  0.87859254  0.79443044  0.93436166  1.0
  O  O1384  1  0.87956377  0.76910436  0.67508448  1.0
  O  O1385  1  0.88000676  0.39655179  0.23761378  1.0
  O  O1386  1  0.89728096  0.52241702  0.75369424  1.0
  O  O1387  1  0.89799016  0.58245759  0.57172518  1.0
  O  O1388  1  0.90537773  0.37606597  0.91210064  1.0
  O  O1389  1  0.90876778  0.58772900  0.35599726  1.0
  O  O1390  1  0.92703416  0.32452574  0.32564715  1.0
  O  O1391  1  0.94246364  0.33438055  0.81021467  1.0
  O  O1392  1  0.95565145  0.60591532  0.02175854  1.0
  O  O1393  1  0.96631477  0.35505660  0.97100380  1.0
  O  O1394  1  0.96988275  0.23277845  0.62111602  1.0
  O  O1395  1  0.97084321  0.50860576  0.40475088  1.0
  O  O1396  1  0.97408039  0.62518849  0.87090236  1.0
  O  O1397  1  0.98030943  0.93240783  0.87260518  1.0
  O  O1398  1  0.98135387  0.97404024  0.35440687  1.0
  O  O1399  1  0.98906602  0.90259927  0.56917988  1.0
  O  O1400  1  0.98969961  0.06849877  0.62957684  1.0
  O  O1401  1  0.99227767  0.78534793  0.31948300  1.0
  O  O1402  1  0.99486522  0.52544139  0.70611889  1.0
  O  O1403  1  0.99554799  0.05930770  0.43153225  1.0
