# generated using pymatgen
data_H2CO
_symmetry_space_group_name_H-M   'P 1'
_cell_length_a   26.62000000
_cell_length_b   20.45000000
_cell_length_c   23.07600000
_cell_angle_alpha   90.00000000
_cell_angle_beta   90.00000000
_cell_angle_gamma   90.00000000
_symmetry_Int_Tables_number   1
_chemical_formula_structural   H2CO
_chemical_formula_sum   'H640 C320 O320'
_cell_volume   12562.08980400
_cell_formula_units_Z   320
loop_
 _symmetry_equiv_pos_site_id
 _symmetry_equiv_pos_as_xyz
  1  'x, y, z'
loop_
 _atom_site_type_symbol
 _atom_site_label
 _atom_site_symmetry_multiplicity
 _atom_site_fract_x
 _atom_site_fract_y
 _atom_site_fract_z
 _atom_site_occupancy
  H  H0  1  0.08316232  0.01302295  -0.03315025  1
  O  O1  1  0.05779724  0.01785780  -0.00296338  1
  C  C2  1  0.07560144  0.05919111  0.03865086  1
  C  C3  1  0.04225663  0.07185502  0.09115412  1
  O  O4  1  0.11646631  0.08646850  0.03650989  1
  H  H5  1  0.03880381  0.02738005  0.11707836  1
  H  H6  1  0.00483717  0.08687318  0.07700778  1
  H  H7  1  0.05797573  0.11042266  0.11843794  1
  H  H8  1  -0.08316350  -0.01301973  0.09185099  1
  O  O9  1  -0.05779746  -0.01785433  0.12203798  1
  C  C10  1  -0.07560053  -0.05919188  0.16364958  1
  C  C11  1  -0.04225542  -0.07185333  0.21615452  1
  O  O12  1  -0.11646510  -0.08646687  0.16151118  1
  H  H13  1  -0.03880377  -0.02737894  0.24208025  1
  H  H14  1  -0.00483642  -0.08686960  0.20200713  1
  H  H15  1  -0.05797386  -0.11042307  0.24343662  1
  H  H16  1  0.16683929  0.11302265  0.09184973  1
  O  O17  1  0.19220223  0.11785476  0.12203869  1
  C  C18  1  0.17439763  0.15918599  0.16365364  1
  C  C19  1  0.20774335  0.17185338  0.21615427  1
  O  O20  1  0.13353373  0.18646901  0.16150897  1
  H  H21  1  0.21119789  0.12737903  0.24207878  1
  H  H22  1  0.24516275  0.18687132  0.20200624  1
  H  H23  1  0.19202588  0.21042196  0.24343796  1
  H  H24  1  0.33316249  0.08697991  -0.03314891  1
  O  O25  1  0.30779756  0.08214225  -0.00296151  1
  C  C26  1  0.32560130  0.04080321  0.03864812  1
  C  C27  1  0.29225781  0.02814728  0.09115462  1
  O  O28  1  0.36646828  0.01353189  0.03651011  1
  H  H29  1  0.28880320  0.07262421  0.11707771  1
  H  H30  1  0.25484024  0.01312752  0.07700810  1
  H  H31  1  0.30797373  -0.01042267  0.11843715  1
  H  H32  1  0.08316212  0.01302466  0.21684813  1
  O  O33  1  0.05779858  0.01785586  0.24703635  1
  C  C34  1  0.07560214  0.05919052  0.28865084  1
  C  C35  1  0.04225642  0.07185276  0.34115352  1
  O  O36  1  0.11646656  0.08646796  0.28650991  1
  H  H37  1  0.03880199  0.02737776  0.36707821  1
  H  H38  1  0.00483794  0.08687161  0.32700540  1
  H  H39  1  0.05797412  0.11042222  0.36843660  1
  H  H40  1  -0.08316251  -0.01302068  0.34185062  1
  O  O41  1  -0.05779809  -0.01785470  0.37203920  1
  C  C42  1  -0.07559912  -0.05919639  0.41364758  1
  C  C43  1  -0.04225749  -0.07185322  0.46615492  1
  O  O44  1  -0.11646683  -0.08646831  0.41150994  1
  H  H45  1  -0.03880342  -0.02737753  0.49207968  1
  H  H46  1  -0.00483925  -0.08687168  0.45200876  1
  H  H47  1  -0.05797521  -0.11042217  0.49343760  1
  H  H48  1  0.16683782  0.11302296  0.34184966  1
  O  O49  1  0.19220180  0.11785395  0.37203842  1
  C  C50  1  0.17439832  0.15918789  0.41365223  1
  C  C51  1  0.20774370  0.17185527  0.46615451  1
  O  O52  1  0.13353434  0.18646790  0.41151022  1
  H  H53  1  0.21119672  0.12738211  0.49208051  1
  H  H54  1  0.24516331  0.18687171  0.45200607  1
  H  H55  1  0.19202366  0.21042290  0.49343807  1
  H  H56  1  0.33316278  0.08697833  0.21684945  1
  O  O57  1  0.30779805  0.08214128  0.24703739  1
  C  C58  1  0.32560085  0.04080346  0.28864688  1
  C  C59  1  0.29225787  0.02814829  0.34115386  1
  O  O60  1  0.36646906  0.01353195  0.28651012  1
  H  H61  1  0.28880213  0.07262558  0.36707664  1
  H  H62  1  0.25484080  0.01312832  0.32700633  1
  H  H63  1  0.30797301  -0.01042085  0.36843698  1
  H  H64  1  0.08316316  0.01302143  0.46684963  1
  O  O65  1  0.05779751  0.01785470  0.49703574  1
  C  C66  1  0.07560119  0.05918937  0.53865076  1
  C  C67  1  0.04225525  0.07185347  0.59115337  1
  O  O68  1  0.11646504  0.08646602  0.53651056  1
  H  H69  1  0.03880293  0.02737976  0.61707953  1
  H  H70  1  0.00483603  0.08687159  0.57700706  1
  H  H71  1  0.05797441  0.11042366  0.61843538  1
  H  H72  1  -0.08316347  -0.01302553  0.59184736  1
  O  O73  1  -0.05779971  -0.01785424  0.62203801  1
  C  C74  1  -0.07560102  -0.05919065  0.66364947  1
  C  C75  1  -0.04225709  -0.07185373  0.71615404  1
  O  O76  1  -0.11646722  -0.08646810  0.66151056  1
  H  H77  1  -0.03880262  -0.02737945  0.74208000  1
  H  H78  1  -0.00483841  -0.08687165  0.70200561  1
  H  H79  1  -0.05797642  -0.11042158  0.74343714  1
  H  H80  1  0.16683911  0.11302560  0.59184829  1
  O  O81  1  0.19220039  0.11785419  0.62203796  1
  C  C82  1  0.17439751  0.15918795  0.66365340  1
  C  C83  1  0.20774232  0.17185326  0.71615399  1
  O  O84  1  0.13353313  0.18647011  0.66150813  1
  H  H85  1  0.21119800  0.12737862  0.74207865  1
  H  H86  1  0.24516107  0.18687341  0.70200582  1
  H  H87  1  0.19202391  0.21042164  0.74343833  1
  H  H88  1  0.33316153  0.08697984  0.46685087  1
  O  O89  1  0.30779733  0.08214054  0.49703682  1
  C  C90  1  0.32560222  0.04080472  0.53864916  1
  C  C91  1  0.29225772  0.02814856  0.59115404  1
  O  O92  1  0.36646850  0.01353152  0.53650917  1
  H  H93  1  0.28880269  0.07262639  0.61707545  1
  H  H94  1  0.25484006  0.01312828  0.57700747  1
  H  H95  1  0.30797274  -0.01042016  0.61843812  1
  H  H96  1  0.08316119  0.01302188  0.71684990  1
  O  O97  1  0.05779714  0.01785648  0.74703744  1
  C  C98  1  0.07560249  0.05918518  0.78865412  1
  C  C99  1  0.04225625  0.07185320  0.84115399  1
  O  O100  1  0.11646686  0.08646747  0.78650943  1
  H  H101  1  0.03880245  0.02737898  0.86707855  1
  H  H102  1  0.00483634  0.08687103  0.82700618  1
  H  H103  1  0.05797454  0.11042121  0.86843885  1
  H  H104  1  -0.08316012  -0.01301964  0.84185217  1
  O  O105  1  -0.05779795  -0.01785645  0.87203538  1
  C  C106  1  -0.07560190  -0.05919161  0.91365345  1
  C  C107  1  -0.04225799  -0.07185213  0.96615306  1
  O  O108  1  -0.11646711  -0.08646810  0.91150793  1
  H  H109  1  -0.03880147  -0.02737562  0.99207597  1
  H  H110  1  -0.00484007  -0.08687619  0.95200964  1
  H  H111  1  -0.05797339  -0.11042289  0.99343606  1
  H  H112  1  0.16683707  0.11302651  0.84184654  1
  O  O113  1  0.19220026  0.11785164  0.87203662  1
  C  C114  1  0.17439685  0.15918060  0.91365531  1
  C  C115  1  0.20774554  0.17185682  0.96615172  1
  O  O116  1  0.13353555  0.18646784  0.91151000  1
  H  H117  1  0.21119719  0.12738662  0.99208000  1
  H  H118  1  0.24516687  0.18687132  0.95200179  1
  H  H119  1  0.19202308  0.21042390  0.99343647  1
  H  H120  1  0.33316112  0.08697755  0.71684948  1
  O  O121  1  0.30779780  0.08214459  0.74703734  1
  C  C122  1  0.32560345  0.04081469  0.78865340  1
  C  C123  1  0.29225664  0.02814661  0.84115322  1
  O  O124  1  0.36646628  0.01353160  0.78650896  1
  H  H125  1  0.28880275  0.07262009  0.86707752  1
  H  H126  1  0.25483735  0.01312853  0.82700592  1
  H  H127  1  0.30797409  -0.01042129  0.86843699  1
  H  H128  1  0.08315954  0.21302378  -0.03315038  1
  O  O129  1  0.05779712  0.21785662  -0.00296214  1
  C  C130  1  0.07560246  0.25918504  0.03865518  1
  C  C131  1  0.04225725  0.27185399  0.09115476  1
  O  O132  1  0.11646715  0.28646791  0.03650918  1
  H  H133  1  0.03880146  0.22737968  0.11707891  1
  H  H134  1  0.00483784  0.28687444  0.07700781  1
  H  H135  1  0.05797590  0.31042189  0.11843896  1
  H  H136  1  -0.08316115  0.18697779  0.09184972  1
  O  O137  1  -0.05779806  0.18214465  0.12203837  1
  C  C138  1  -0.07560191  0.14081202  0.16365244  1
  C  C139  1  -0.04225699  0.12814694  0.21615373  1
  O  O140  1  -0.11646694  0.11353096  0.16150909  1
  H  H141  1  -0.03880237  0.17262159  0.24207798  1
  H  H142  1  -0.00483796  0.11312854  0.20200642  1
  H  H143  1  -0.05797422  0.08957892  0.24343791  1
  H  H144  1  0.16683750  0.31302208  0.09184950  1
  O  O145  1  0.19220221  0.31785193  0.12203706  1
  C  C146  1  0.17439890  0.35918671  0.16365235  1
  C  C147  1  0.20774503  0.37185470  0.21615372  1
  O  O148  1  0.13353607  0.38646585  0.16151088  1
  H  H149  1  0.21119643  0.32738336  0.24208159  1
  H  H150  1  0.24516503  0.38687023  0.20200546  1
  H  H151  1  0.19202402  0.41042321  0.24343672  1
  H  H152  1  0.33316433  0.28698010  -0.03314855  1
  O  O153  1  0.30779800  0.28214274  -0.00296272  1
  C  C154  1  0.32560177  0.24080265  0.03864758  1
  C  C155  1  0.29225747  0.22814648  0.09115475  1
  O  O156  1  0.36646716  0.21353297  0.03651123  1
  H  H157  1  0.28880504  0.27262261  0.11707871  1
  H  H158  1  0.25483964  0.21312718  0.07700893  1
  H  H159  1  0.30797514  0.18957659  0.11843650  1
  H  H160  1  0.08316373  0.21302241  0.21684912  1
  O  O161  1  0.05779804  0.21785521  0.24703547  1
  C  C162  1  0.07560062  0.25919414  0.28864836  1
  C  C163  1  0.04225601  0.27185367  0.34115355  1
  O  O164  1  0.11646572  0.28646549  0.28651123  1
  H  H165  1  0.03880374  0.22737949  0.36707981  1
  H  H166  1  0.00483731  0.28687133  0.32700682  1
  H  H167  1  0.05797537  0.31042321  0.36843582  1
  H  H168  1  -0.08316157  0.18697680  0.34184966  1
  O  O169  1  -0.05779900  0.18214578  0.37203850  1
  C  C170  1  -0.07560194  0.14080876  0.41365195  1
  C  C171  1  -0.04225775  0.12814763  0.46615420  1
  O  O172  1  -0.11646763  0.11353268  0.41150991  1
  H  H173  1  -0.03880195  0.17262257  0.49207932  1
  H  H174  1  -0.00483998  0.11312654  0.45200768  1
  H  H175  1  -0.05797537  0.08957790  0.49343750  1
  H  H176  1  0.16683914  0.31302281  0.34185031  1
  O  O177  1  0.19220109  0.31785504  0.37203868  1
  C  C178  1  0.17439718  0.35918747  0.41365422  1
  C  C179  1  0.20774176  0.37185306  0.46615425  1
  O  O180  1  0.13353232  0.38646964  0.41150839  1
  H  H181  1  0.21119831  0.32737838  0.49207819  1
  H  H182  1  0.24516037  0.38687437  0.45200752  1
  H  H183  1  0.19202449  0.41042135  0.49343853  1
  H  H184  1  0.33316280  0.28697955  0.21685007  1
  O  O185  1  0.30779671  0.28213915  0.24703550  1
  C  C186  1  0.32560233  0.24080709  0.28864913  1
  C  C187  1  0.29225738  0.22814717  0.34115321  1
  O  O188  1  0.36646803  0.21353071  0.28650854  1
  H  H189  1  0.28880401  0.27262395  0.36707506  1
  H  H190  1  0.25483836  0.21312735  0.32700814  1
  H  H191  1  0.30797456  0.18958003  0.36843786  1
  H  H192  1  0.08316024  0.21302140  0.46685087  1
  O  O193  1  0.05779836  0.21785342  0.49703734  1
  C  C194  1  0.07560199  0.25919277  0.53865210  1
  C  C195  1  0.04225735  0.27185163  0.59115451  1
  O  O196  1  0.11646620  0.28646642  0.53650927  1
  H  H197  1  0.03880164  0.22737566  0.61707953  1
  H  H198  1  0.00484025  0.28687328  0.57700788  1
  H  H199  1  0.05797322  0.31042431  0.61843554  1
  H  H200  1  -0.08316003  0.18697286  0.59184674  1
  O  O201  1  -0.05779778  0.18214347  0.62203744  1
  C  C202  1  -0.07560254  0.14081782  0.66365479  1
  C  C203  1  -0.04225644  0.12814582  0.71615311  1
  O  O204  1  -0.11646675  0.11353011  0.66150865  1
  H  H205  1  -0.03880143  0.17261935  0.74207726  1
  H  H206  1  -0.00483612  0.11312837  0.70200453  1
  H  H207  1  -0.05797553  0.08958067  0.74343978  1
  H  H208  1  0.16683776  0.31302701  0.59184633  1
  O  O209  1  0.19220107  0.31785504  0.62203811  1
  C  C210  1  0.17439779  0.35918540  0.66365195  1
  C  C211  1  0.20774362  0.37185516  0.71615296  1
  O  O212  1  0.13353383  0.38647133  0.66150824  1
  H  H213  1  0.21119746  0.32738214  0.74207829  1
  H  H214  1  0.24516376  0.38687157  0.70200411  1
  H  H215  1  0.19202335  0.41042039  0.74343874  1
  H  H216  1  0.33316336  0.28698194  0.46685237  1
  O  O217  1  0.30779778  0.28214233  0.49703883  1
  C  C218  1  0.32560054  0.24080132  0.53864745  1
  C  C219  1  0.29225738  0.22814861  0.59115471  1
  O  O220  1  0.36646846  0.21353252  0.53651082  1
  H  H221  1  0.28880302  0.27262622  0.61707762  1
  H  H222  1  0.25484042  0.21312836  0.57700809  1
  H  H223  1  0.30797261  0.18957808  0.61843771  1
  H  H224  1  0.08316259  0.21302056  0.71685119  1
  O  O225  1  0.05779840  0.21785502  0.74703842  1
  C  C226  1  0.07560115  0.25919294  0.78865019  1
  C  C227  1  0.04225699  0.27185238  0.84115513  1
  O  O228  1  0.11646727  0.28646642  0.78651124  1
  H  H229  1  0.03880274  0.22737707  0.86708031  1
  H  H230  1  0.00483887  0.28687109  0.82700778  1
  H  H231  1  0.05797378  0.31042210  0.86843709  1
  H  H232  1  -0.08316558  0.18697882  0.84184871  1
  O  O233  1  -0.05779796  0.18214798  0.87203600  1
  C  C234  1  -0.07559741  0.14080592  0.91364570  1
  C  C235  1  -0.04225422  0.12814309  0.96615244  1
  O  O236  1  -0.11646371  0.11353570  0.91151237  1
  H  H237  1  -0.03880458  0.17261413  0.99208176  1
  H  H238  1  -0.00483410  0.11313048  0.95200551  1
  H  H239  1  -0.05797666  0.08957586  0.99343461  1
  H  H240  1  0.16683836  0.31302308  0.84184959  1
  O  O241  1  0.19220104  0.31785394  0.87203610  1
  C  C242  1  0.17439767  0.35918633  0.91365366  1
  C  C243  1  0.20774317  0.37185420  0.96615275  1
  O  O244  1  0.13353448  0.38646900  0.91150834  1
  H  H245  1  0.21119782  0.32737993  0.99207711  1
  H  H246  1  0.24516239  0.38687375  0.95200685  1
  H  H247  1  0.19202530  0.41042319  0.99343616  1
  H  H248  1  0.33316236  0.28698185  0.71685248  1
  O  O249  1  0.30779812  0.28214495  0.74703832  1
  C  C250  1  0.32560045  0.24080278  0.78864859  1
  C  C251  1  0.29225850  0.22814784  0.84115441  1
  O  O252  1  0.36646702  0.21353131  0.78650865  1
  H  H253  1  0.28880300  0.27262424  0.86707804  1
  H  H254  1  0.25484120  0.21312511  0.82701166  1
  H  H255  1  0.30797465  0.18957767  0.86843616  1
  H  H256  1  0.08316213  0.41302271  -0.03315085  1
  O  O257  1  0.05779824  0.41785465  -0.00296043  1
  C  C258  1  0.07560028  0.45919378  0.03864881  1
  C  C259  1  0.04225717  0.47185360  0.09115501  1
  O  O260  1  0.11646740  0.48646723  0.03651072  1
  H  H261  1  0.03880284  0.42737874  0.11708051  1
  H  H262  1  0.00483884  0.48687100  0.07700593  1
  H  H263  1  0.05797576  0.51042148  0.11843869  1
  H  H264  1  -0.08316230  0.38697915  0.09185066  1
  O  O265  1  -0.05779773  0.38214496  0.12203835  1
  C  C266  1  -0.07560137  0.34080828  0.16365051  1
  C  C267  1  -0.04225653  0.32814709  0.21615452  1
  O  O268  1  -0.11646621  0.31353229  0.16151025  1
  H  H269  1  -0.03880309  0.37262209  0.24207917  1
  H  H270  1  -0.00483803  0.31312847  0.20200753  1
  H  H271  1  -0.05797436  0.28957808  0.24343745  1
  H  H272  1  0.16683838  0.51302146  0.09185040  1
  O  O273  1  0.19220111  0.51785384  0.12203979  1
  C  C274  1  0.17439835  0.55919137  0.16365129  1
  C  C275  1  0.20774238  0.57185209  0.21615446  1
  O  O276  1  0.13353263  0.58646907  0.16150879  1
  H  H277  1  0.21119860  0.52737683  0.24207893  1
  H  H278  1  0.24516017  0.58687223  0.20200647  1
  H  H279  1  0.19202588  0.61042181  0.24343781  1
  H  H280  1  0.33316267  0.48697951  -0.03314928  1
  O  O281  1  0.30779747  0.48213999  -0.00296320  1
  C  C282  1  0.32560441  0.44081027  0.03865173  1
  C  C283  1  0.29225785  0.42814658  0.09115379  1
  O  O284  1  0.36646799  0.41352930  0.03650810  1
  H  H285  1  0.28880470  0.47262277  0.11707564  1
  H  H286  1  0.25483849  0.41312696  0.07700840  1
  H  H287  1  0.30797494  0.38957896  0.11843823  1
  H  H288  1  0.08316185  0.41302323  0.21684863  1
  O  O289  1  0.05779808  0.41785581  0.24703857  1
  C  C290  1  0.07560103  0.45919063  0.28864975  1
  C  C291  1  0.04225707  0.47185395  0.34115414  1
  O  O292  1  0.11646739  0.48646863  0.28650950  1
  H  H293  1  0.03880223  0.42737918  0.36707868  1
  H  H294  1  0.00483819  0.48687158  0.32700566  1
  H  H295  1  0.05797494  0.51042153  0.36843781  1
  H  H296  1  -0.08315891  0.38697277  0.34184775  1
  O  O297  1  -0.05779863  0.38214534  0.37203925  1
  C  C298  1  -0.07560396  0.34081921  0.41365711  1
  C  C299  1  -0.04225713  0.32814616  0.46615414  1
  O  O300  1  -0.11646690  0.31352926  0.41150793  1
  H  H301  1  -0.03880030  0.37261959  0.49207850  1
  H  H302  1  -0.00483768  0.31312657  0.45200458  1
  H  H303  1  -0.05797513  0.28957886  0.49343931  1
  H  H304  1  0.16683815  0.51302269  0.34184997  1
  O  O305  1  0.19220120  0.51785524  0.37203891  1
  C  C306  1  0.17439792  0.55919090  0.41365169  1
  C  C307  1  0.20774189  0.57185238  0.46615492  1
  O  O308  1  0.13353265  0.58646966  0.41150901  1
  H  H309  1  0.21119710  0.52737665  0.49207896  1
  H  H310  1  0.24516013  0.58687200  0.45200762  1
  H  H311  1  0.19202469  0.61042175  0.49343853  1
  H  H312  1  0.33316327  0.48697930  0.21684943  1
  O  O313  1  0.30779693  0.48214101  0.24703651  1
  C  C314  1  0.32560114  0.44080445  0.28864691  1
  C  C315  1  0.29225642  0.42814713  0.34115345  1
  O  O316  1  0.36646736  0.41353192  0.28651025  1
  H  H317  1  0.28880365  0.47262321  0.36707669  1
  H  H318  1  0.25483805  0.41312871  0.32700726  1
  H  H319  1  0.30797422  0.38957954  0.36843729  1
  H  H320  1  0.08316311  0.41302119  0.46685000  1
  O  O321  1  0.05779780  0.41785383  0.49703821  1
  C  C322  1  0.07559972  0.45919453  0.53864756  1
  C  C323  1  0.04225568  0.47185348  0.59115446  1
  O  O324  1  0.11646556  0.48646592  0.53651201  1
  H  H325  1  0.03880295  0.42737958  0.61708077  1
  H  H326  1  0.00483747  0.48686904  0.57700582  1
  H  H327  1  0.05797399  0.51042212  0.61843688  1
  H  H328  1  -0.08316148  0.38697743  0.59185036  1
  O  O329  1  -0.05779785  0.38213995  0.62203543  1
  C  C330  1  -0.07560409  0.34080910  0.66365293  1
  C  C331  1  -0.04225799  0.32814820  0.71615353  1
  O  O332  1  -0.11646796  0.31352970  0.66150782  1
  H  H333  1  -0.03880219  0.37262559  0.74207442  1
  H  H334  1  -0.00483987  0.31312453  0.70200887  1
  H  H335  1  -0.05797405  0.28957857  0.74343807  1
  H  H336  1  0.16683855  0.51302554  0.59184824  1
  O  O337  1  0.19219997  0.51785471  0.62203661  1
  C  C338  1  0.17439886  0.55919207  0.66365076  1
  C  C339  1  0.20774138  0.57185238  0.71615327  1
  O  O340  1  0.13353238  0.58646942  0.66150839  1
  H  H341  1  0.21119918  0.52737677  0.74207721  1
  H  H342  1  0.24515881  0.58687497  0.70200768  1
  H  H343  1  0.19202469  0.61042169  0.74343642  1
  H  H344  1  0.33316334  0.48698044  0.46684989  1
  O  O345  1  0.30779662  0.48214285  0.49703553  1
  C  C346  1  0.32560260  0.44081217  0.53865086  1
  C  C347  1  0.29225557  0.42814626  0.59115363  1
  O  O348  1  0.36646575  0.41353318  0.53650979  1
  H  H349  1  0.28880513  0.47262056  0.61707803  1
  H  H350  1  0.25483511  0.41313055  0.57700608  1
  H  H351  1  0.30797496  0.38957779  0.61843704  1
  H  H352  1  0.08316232  0.41301839  0.71685238  1
  O  O353  1  0.05779710  0.41785727  0.74703873  1
  C  C354  1  0.07560133  0.45919453  0.78864921  1
  C  C355  1  0.04225802  0.47185220  0.84115570  1
  O  O356  1  0.11646807  0.48646667  0.78651056  1
  H  H357  1  0.03880349  0.42737545  0.86707886  1
  H  H358  1  0.00484030  0.48687222  0.82700928  1
  H  H359  1  0.05797392  0.51042206  0.86843771  1
  H  H360  1  -0.08316242  0.38697486  0.84184695  1
  O  O361  1  -0.05779722  0.38214549  0.87203672  1
  C  C362  1  -0.07560152  0.34081991  0.91365366  1
  C  C363  1  -0.04225464  0.32814348  0.96615275  1
  O  O364  1  -0.11646452  0.31353183  0.91150979  1
  H  H365  1  -0.03880224  0.37261457  0.99207969  1
  H  H366  1  -0.00483320  0.31312917  0.95200417  1
  H  H367  1  -0.05797623  0.28957738  0.99343699  1
  H  H368  1  0.16683900  0.51302467  0.84184845  1
  O  O369  1  0.19220048  0.51785524  0.87203641  1
  C  C370  1  0.17439764  0.55918909  0.91365262  1
  C  C371  1  0.20774279  0.57185221  0.96615399  1
  O  O372  1  0.13353312  0.58646977  0.91150783  1
  H  H373  1  0.21119901  0.52737467  0.99207711  1
  H  H374  1  0.24516125  0.58687462  0.95200685  1
  H  H375  1  0.19202554  0.61042256  0.99343627  1
  H  H376  1  0.33316475  0.48698271  0.71685165  1
  O  O377  1  0.30779733  0.48214748  0.74703656  1
  C  C378  1  0.32559987  0.44080861  0.78864870  1
  C  C379  1  0.29225505  0.42814445  0.84115410  1
  O  O380  1  0.36646416  0.41353589  0.78651165  1
  H  H381  1  0.28880524  0.47261683  0.86708217  1
  H  H382  1  0.25483527  0.41312781  0.82700907  1
  H  H383  1  0.30797662  0.38957511  0.86843430  1
  H  H384  1  0.08316257  0.61302197  -0.03315035  1
  O  O385  1  0.05779731  0.61785743  -0.00296037  1
  C  C386  1  0.07560102  0.65919292  0.03864867  1
  C  C387  1  0.04225745  0.67185440  0.09115508  1
  O  O388  1  0.11646785  0.68646900  0.03651000  1
  H  H389  1  0.03880383  0.62737879  0.11707883  1
  H  H390  1  0.00483846  0.68687110  0.07700663  1
  H  H391  1  0.05797550  0.71042132  0.11843937  1
  H  H392  1  -0.08316248  0.58697966  0.09185119  1
  O  O393  1  -0.05779773  0.58214350  0.12203838  1
  C  C394  1  -0.07560193  0.54080871  0.16365113  1
  C  C395  1  -0.04225636  0.52814839  0.21615462  1
  O  O396  1  -0.11646697  0.51353176  0.16151004  1
  H  H397  1  -0.03880251  0.57262442  0.24207808  1
  H  H398  1  -0.00483804  0.51312878  0.20200736  1
  H  H399  1  -0.05797278  0.48957804  0.24343750  1
  H  H400  1  0.16683868  0.71302125  0.09185110  1
  O  O401  1  0.19220225  0.71785695  0.12203795  1
  C  C402  1  0.17439793  0.75919243  0.16365154  1
  C  C403  1  0.20774250  0.77185170  0.21615468  1
  O  O404  1  0.13353272  0.78646869  0.16150910  1
  H  H405  1  0.21119822  0.72737475  0.24207756  1
  H  H406  1  0.24515999  0.78687429  0.20200867  1
  H  H407  1  0.19202646  0.81042200  0.24343760  1
  H  H408  1  0.33316215  0.68697947  -0.03314861  1
  O  O409  1  0.30779839  0.68214184  -0.00296221  1
  C  C410  1  0.32560405  0.64080951  0.03865243  1
  C  C411  1  0.29225819  0.62814791  0.09115495  1
  O  O412  1  0.36646843  0.61353046  0.03650863  1
  H  H413  1  0.28880224  0.67262539  0.11707672  1
  H  H414  1  0.25484015  0.61312532  0.07700844  1
  H  H415  1  0.30797420  0.58957808  0.11843785  1
  H  H416  1  0.08316276  0.61302313  0.21684922  1
  O  O417  1  0.05779890  0.61785592  0.24703715  1
  C  C418  1  0.07560171  0.65919484  0.28864905  1
  C  C419  1  0.04225748  0.67185225  0.34115394  1
  O  O420  1  0.11646714  0.68646859  0.28650966  1
  H  H421  1  0.03880228  0.62737616  0.36707806  1
  H  H422  1  0.00484018  0.68687320  0.32700700  1
  H  H423  1  0.05797446  0.71042237  0.36843667  1
  H  H424  1  -0.08316111  0.58697826  0.34185129  1
  O  O425  1  -0.05779868  0.58214513  0.37203832  1
  C  C426  1  -0.07560169  0.54080760  0.41365210  1
  C  C427  1  -0.04225801  0.52814705  0.46615497  1
  O  O428  1  -0.11646697  0.51353112  0.41150867  1
  H  H429  1  -0.03880226  0.57262354  0.49207824  1
  H  H430  1  -0.00483979  0.51312517  0.45200876  1
  H  H431  1  -0.05797563  0.48957786  0.49343853  1
  H  H432  1  0.16683971  0.71302510  0.34184894  1
  O  O433  1  0.19220111  0.71785724  0.37204108  1
  C  C434  1  0.17439822  0.75918964  0.41365223  1
  C  C435  1  0.20774108  0.77185334  0.46615544  1
  O  O436  1  0.13353021  0.78647131  0.41150862  1
  H  H437  1  0.21119876  0.72737632  0.49207788  1
  H  H438  1  0.24515937  0.78687277  0.45200525  1
  H  H439  1  0.19202507  0.81042054  0.49344070  1
  H  H440  1  0.33316153  0.68697900  0.21685010  1
  O  O441  1  0.30779635  0.68213823  0.24703656  1
  C  C442  1  0.32560352  0.64081283  0.28865238  1
  C  C443  1  0.29225702  0.62814622  0.34115339  1
  O  O444  1  0.36646837  0.61352947  0.28650803  1
  H  H445  1  0.28880275  0.67262253  0.36707460  1
  H  H446  1  0.25483731  0.61312818  0.32700548  1
  H  H447  1  0.30797342  0.58957982  0.36843936  1
  H  H448  1  0.08316182  0.61302068  0.46685051  1
  O  O449  1  0.05779782  0.61785574  0.49703883  1
  C  C450  1  0.07560026  0.65919607  0.53864807  1
  C  C451  1  0.04225715  0.67185201  0.59115466  1
  O  O452  1  0.11646759  0.68646777  0.53650994  1
  H  H453  1  0.03880216  0.62737552  0.61707834  1
  H  H454  1  0.00483978  0.68687116  0.57700664  1
  H  H455  1  0.05797311  0.71042202  0.61843735  1
  H  H456  1  -0.08315930  0.58697337  0.59184803  1
  O  O457  1  -0.05779781  0.58214122  0.62203754  1
  C  C458  1  -0.07560470  0.54081850  0.66365686  1
  C  C459  1  -0.04225746  0.52814629  0.71615342  1
  O  O460  1  -0.11646811  0.51352914  0.66150808  1
  H  H461  1  -0.03880029  0.57262086  0.74207643  1
  H  H462  1  -0.00483811  0.51312581  0.70200489  1
  H  H463  1  -0.05797487  0.48958066  0.74344003  1
  H  H464  1  0.16683955  0.71302714  0.59184809  1
  O  O465  1  0.19219919  0.71785281  0.62203765  1
  C  C466  1  0.17439807  0.75919372  0.66365164  1
  C  C467  1  0.20774149  0.77185159  0.71615389  1
  O  O468  1  0.13353287  0.78646962  0.66150829  1
  H  H469  1  0.21119950  0.72737562  0.74207876  1
  H  H470  1  0.24515776  0.78687510  0.70200685  1
  H  H471  1  0.19202523  0.81042270  0.74343647  1
  H  H472  1  0.33316191  0.68697731  0.46684860  1
  O  O473  1  0.30779767  0.68214330  0.49703832  1
  C  C474  1  0.32560280  0.64081207  0.53865143  1
  C  C475  1  0.29225595  0.62814843  0.59115420  1
  O  O476  1  0.36646720  0.61353162  0.53650984  1
  H  H477  1  0.28880291  0.67262329  0.61707839  1
  H  H478  1  0.25483688  0.61313109  0.57700432  1
  H  H479  1  0.30797279  0.58957901  0.61843761  1
  H  H480  1  0.08316170  0.61301894  0.71685212  1
  O  O481  1  0.05779737  0.61785784  0.74703935  1
  C  C482  1  0.07560148  0.65919531  0.78864994  1
  C  C483  1  0.04225805  0.67185201  0.84115523  1
  O  O484  1  0.11646876  0.68646812  0.78651005  1
  H  H485  1  0.03880235  0.62737453  0.86707762  1
  H  H486  1  0.00484062  0.68687273  0.82700835  1
  H  H487  1  0.05797361  0.71042109  0.86843905  1
  H  H488  1  -0.08316180  0.58697780  0.84184985  1
  O  O489  1  -0.05779759  0.58214356  0.87203548  1
  C  C490  1  -0.07560198  0.54080964  0.91365200  1
  C  C491  1  -0.04225651  0.52814635  0.96615286  1
  O  O492  1  -0.11646520  0.51352919  0.91150741  1
  H  H493  1  -0.03880265  0.57262243  0.99207628  1
  H  H494  1  -0.00483746  0.51312569  0.95200840  1
  H  H495  1  -0.05797464  0.48957693  0.99343647  1
  H  H496  1  0.16683631  0.71302375  0.84184783  1
  O  O497  1  0.19220196  0.71785561  0.87203806  1
  C  C498  1  0.17439918  0.75918917  0.91364890  1
  C  C499  1  0.20774420  0.77185415  0.96615296  1
  O  O500  1  0.13353379  0.78646956  0.91150969  1
  H  H501  1  0.21119674  0.72738075  0.99207835  1
  H  H502  1  0.24516378  0.78686980  0.95200510  1
  H  H503  1  0.19202510  0.81042095  0.99343761  1
  H  H504  1  0.33316267  0.68697731  0.71684866  1
  O  O505  1  0.30779722  0.68214692  0.74703780  1
  C  C506  1  0.32560179  0.64081656  0.78865273  1
  C  C507  1  0.29225512  0.62814353  0.84115332  1
  O  O508  1  0.36646451  0.61353384  0.78651051  1
  H  H509  1  0.28880436  0.67261390  0.86708186  1
  H  H510  1  0.25483413  0.61312993  0.82700561  1
  H  H511  1  0.30797635  0.58957621  0.86843616  1
  H  H512  1  0.08316127  0.81302350  -0.03315047  1
  O  O513  1  0.05779897  0.81785559  -0.00296181  1
  C  C514  1  0.07560244  0.85919311  0.03865084  1
  C  C515  1  0.04225816  0.87185250  0.09115490  1
  O  O516  1  0.11646791  0.88646849  0.03650889  1
  H  H517  1  0.03880190  0.82737607  0.11707901  1
  H  H518  1  0.00484075  0.88687462  0.07700772  1
  H  H519  1  0.05797539  0.91042268  0.11843720  1
  H  H520  1  -0.08316083  0.78697840  0.09185096  1
  O  O521  1  -0.05779842  0.78214457  0.12203793  1
  C  C522  1  -0.07560335  0.74081188  0.16365426  1
  C  C523  1  -0.04225742  0.72814789  0.21615403  1
  O  O524  1  -0.11646675  0.71353003  0.16150809  1
  H  H525  1  -0.03880185  0.77262333  0.24207741  1
  H  H526  1  -0.00483891  0.71312658  0.20200772  1
  H  H527  1  -0.05797418  0.68957864  0.24343804  1
  H  H528  1  0.16683910  0.91302290  0.09184966  1
  O  O529  1  0.19220174  0.91785481  0.12203873  1
  C  C530  1  0.17439899  0.95919164  0.16365122  1
  C  C531  1  0.20774272  0.97185196  0.21615430  1
  O  O532  1  0.13353310  0.98646905  0.16150943  1
  H  H533  1  0.21119876  0.92737651  0.24207818  1
  H  H534  1  0.24516067  0.98687139  0.20200623  1
  H  H535  1  0.19202635  1.01042097  0.24343856  1
  H  H536  1  0.33316305  0.88697856  -0.03314988  1
  O  O537  1  0.30779610  0.88214012  -0.00296303  1
  C  C538  1  0.32560392  0.84081681  0.03865387  1
  C  C539  1  0.29225575  0.82814396  0.09115388  1
  O  O540  1  0.36646671  0.81353141  0.03651019  1
  H  H541  1  0.28880499  0.87261713  0.11707781  1
  H  H542  1  0.25483424  0.81312895  0.07700619  1
  H  H543  1  0.30797592  0.78957879  0.11843943  1
  H  H544  1  0.08316285  0.81302397  0.21684824  1
  O  O545  1  0.05779773  0.81785879  0.24703844  1
  C  C546  1  0.07560176  0.85919026  0.28864921  1
  C  C547  1  0.04225682  0.87185442  0.34115391  1
  O  O548  1  0.11646782  0.88647065  0.28650942  1
  H  H549  1  0.03880317  0.82737857  0.36707705  1
  H  H550  1  0.00483752  0.88687106  0.32700501  1
  H  H551  1  0.05797442  0.91042035  0.36843869  1
  H  H552  1  -0.08315975  0.78697578  0.34184976  1
  O  O553  1  -0.05779823  0.78214387  0.37203757  1
  C  C554  1  -0.07560434  0.74081701  0.41365722  1
  C  C555  1  -0.04225701  0.72814620  0.46615404  1
  O  O556  1  -0.11646665  0.71353020  0.41150824  1
  H  H557  1  -0.03880164  0.77262065  0.49207736  1
  H  H558  1  -0.00483729  0.71312635  0.45200592  1
  H  H559  1  -0.05797488  0.68957806  0.49343900  1
  H  H560  1  0.16683789  0.91302232  0.34184994  1
  O  O561  1  0.19220245  0.91785574  0.37203855  1
  C  C562  1  0.17439823  0.95918878  0.41365138  1
  C  C563  1  0.20774353  0.97185405  0.46615492  1
  O  O564  1  0.13353362  0.98646801  0.41151035  1
  H  H565  1  0.21119692  0.92737943  0.49207999  1
  H  H566  1  0.24516264  0.98687081  0.45200664  1
  H  H567  1  0.19202523  1.01042260  0.49343766  1
  H  H568  1  0.33316513  0.88698269  0.21685216  1
  O  O569  1  0.30779603  0.88214000  0.24703462  1
  C  C570  1  0.32560085  0.84080107  0.28864619  1
  C  C571  1  0.29225595  0.82814594  0.34115412  1
  O  O572  1  0.36646617  0.81353409  0.28651172  1
  H  H573  1  0.28880566  0.87262249  0.36707733  1
  H  H574  1  0.25483729  0.81312884  0.32700868  1
  H  H575  1  0.30797451  0.78957681  0.36843709  1
  H  H576  1  0.08316256  0.81302257  0.46684958  1
  O  O577  1  0.05779813  0.81785500  0.49703780  1
  C  C578  1  0.07559996  0.85919201  0.53864921  1
  C  C579  1  0.04225605  0.87185332  0.59115430  1
  O  O580  1  0.11646604  0.88646750  0.53651082  1
  H  H581  1  0.03880228  0.82737892  0.61707969  1
  H  H582  1  0.00483725  0.88687083  0.57700675  1
  H  H583  1  0.05797392  0.91042169  0.61843673  1
  H  H584  1  -0.08316130  0.78697700  0.59185062  1
  O  O585  1  -0.05779845  0.78214258  0.62203651  1
  C  C586  1  -0.07560264  0.74080535  0.66365195  1
  C  C587  1  -0.04225809  0.72814829  0.71615394  1
  O  O588  1  -0.11646702  0.71352985  0.66150834  1
  H  H589  1  -0.03880225  0.77262548  0.74207659  1
  H  H590  1  -0.00484088  0.71312483  0.70200897  1
  H  H591  1  -0.05797400  0.68957736  0.74343766  1
  H  H592  1  0.16683861  0.91302681  0.59184829  1
  O  O593  1  0.19219950  0.91785394  0.62203630  1
  C  C594  1  0.17439731  0.95919164  0.66365283  1
  C  C595  1  0.20774164  0.97185201  0.71615275  1
  O  O596  1  0.13353300  0.98646905  0.66150860  1
  H  H597  1  0.21119901  0.92737780  0.74207824  1
  H  H598  1  0.24515885  0.98687512  0.70200675  1
  H  H599  1  0.19202469  1.01042167  0.74343668  1
  H  H600  1  0.33316115  0.88697943  0.46685149  1
  O  O601  1  0.30779738  0.88213802  0.49703739  1
  C  C602  1  0.32560414  0.84081081  0.53865283  1
  C  C603  1  0.29225823  0.82814839  0.59115399  1
  O  O604  1  0.36646989  0.81352908  0.53650824  1
  H  H605  1  0.28880217  0.87262710  0.61707328  1
  H  H606  1  0.25483973  0.81312779  0.57700680  1
  H  H607  1  0.30797198  0.78958107  0.61843988  1
  H  H608  1  0.08316137  0.81302094  0.71685057  1
  O  O609  1  0.05779642  0.81785804  0.74703972  1
  C  C610  1  0.07560218  0.85919014  0.78865050  1
  C  C611  1  0.04225679  0.87185396  0.84115472  1
  O  O612  1  0.11646745  0.88646925  0.78650979  1
  H  H613  1  0.03880345  0.82737892  0.86707814  1
  H  H614  1  0.00483751  0.88687048  0.82700665  1
  H  H615  1  0.05797408  0.91041988  0.86843957  1
  H  H616  1  -0.08316440  0.78697828  0.84184876  1
  O  O617  1  -0.05779886  0.78214730  0.87203972  1
  C  C618  1  -0.07559776  0.74080092  0.91364363  1
  C  C619  1  -0.04225639  0.72814690  0.96615441  1
  O  O620  1  -0.11646632  0.71353254  0.91151124  1
  H  H621  1  -0.03880311  0.77262187  0.99208062  1
  H  H622  1  -0.00483883  0.71313148  0.95200541  1
  H  H623  1  -0.05797443  0.68957771  0.99343668  1
  H  H624  1  0.16683945  0.91302436  0.84184923  1
  O  O625  1  0.19220084  0.91785359  0.87203538  1
  C  C626  1  0.17439873  0.95919193  0.91365262  1
  C  C627  1  0.20774281  0.97185230  0.96615193  1
  O  O628  1  0.13353429  0.98646777  0.91150845  1
  H  H629  1  0.21119903  0.92737780  0.99207711  1
  H  H630  1  0.24516053  0.98687372  0.95200737  1
  H  H631  1  0.19202648  1.01042342  0.99343523  1
  H  H632  1  0.33316242  0.88697972  0.71685139  1
  O  O633  1  0.30779863  0.88214711  0.74703920  1
  C  C634  1  0.32560020  0.84080405  0.78864911  1
  C  C635  1  0.29225765  0.82814828  0.84115477  1
  O  O636  1  0.36646655  0.81353310  0.78651062  1
  H  H637  1  0.28880237  0.87262313  0.86708062  1
  H  H638  1  0.25484064  0.81312709  0.82700969  1
  H  H639  1  0.30797415  0.78957675  0.86843575  1
  H  H640  1  0.58316154  0.01302572  -0.03315175  1
  O  O641  1  0.55779961  0.01785154  -0.00296068  1
  C  C642  1  0.57560044  0.05918903  0.03865151  1
  C  C643  1  0.54225668  0.07185497  0.09115428  1
  O  O644  1  0.61646567  0.08646882  0.03650968  1
  H  H645  1  0.53880154  0.02738196  0.11708105  1
  H  H646  1  0.50483773  0.08687171  0.07700473  1
  H  H647  1  0.55797605  0.11042322  0.11843750  1
  H  H648  1  0.41683709  -0.01301855  0.09185111  1
  O  O649  1  0.44220323  -0.01785690  0.12203673  1
  C  C650  1  0.42439833  -0.05919140  0.16364976  1
  C  C651  1  0.45774415  -0.07185369  0.21615381  1
  O  O652  1  0.38353395  -0.08646745  0.16150945  1
  H  H653  1  0.46119539  -0.02737833  0.24207782  1
  H  H654  1  0.49516395  -0.08687047  0.20200767  1
  H  H655  1  0.44202576  -0.11042257  0.24343680  1
  H  H656  1  0.66683782  0.11301995  0.09185132  1
  O  O657  1  0.69220307  0.11785484  0.12203714  1
  C  C658  1  0.67440027  0.15919424  0.16364958  1
  C  C659  1  0.70774390  0.17185376  0.21615449  1
  O  O660  1  0.63353540  0.18646771  0.16150999  1
  H  H661  1  0.71119671  0.12737886  0.24207973  1
  H  H662  1  0.74516231  0.18687344  0.20200991  1
  H  H663  1  0.69202520  0.21042403  0.24343623  1
  H  H664  1  0.83316205  0.08698681  -0.03314423  1
  O  O665  1  0.80779385  0.08213220  -0.00296265  1
  C  C666  1  0.82560243  0.04080492  0.03865048  1
  C  C667  1  0.79225876  0.02814726  0.09115473  1
  O  O668  1  0.86647205  0.01353153  0.03650955  1
  H  H669  1  0.78880285  0.07262808  0.11707166  1
  H  H670  1  0.75484101  0.01312359  0.07701170  1
  H  H671  1  0.80797199  -0.01042052  0.11844066  1
  H  H672  1  0.58316266  0.01302135  0.21684979  1
  O  O673  1  0.55779764  0.01785968  0.24703904  1
  C  C674  1  0.57560161  0.05919417  0.28864815  1
  C  C675  1  0.54225798  0.07185213  0.34115440  1
  O  O676  1  0.61646988  0.08646895  0.28651022  1
  H  H677  1  0.53880221  0.02737483  0.36707620  1
  H  H678  1  0.50484032  0.08687098  0.32700571  1
  H  H679  1  0.55797328  0.11041940  0.36843926  1
  H  H680  1  0.41683642  -0.01301990  0.34185139  1
  O  O681  1  0.44220269  -0.01785810  0.37203630  1
  C  C682  1  0.42439743  -0.05919467  0.41364952  1
  C  C683  1  0.45774231  -0.07185260  0.46615435  1
  O  O684  1  0.38353314  -0.08646790  0.41151035  1
  H  H685  1  0.46119513  -0.02737717  0.49207798  1
  H  H686  1  0.49516064  -0.08687214  0.45200964  1
  H  H687  1  0.44202585  -0.11042303  0.49343642  1
  H  H688  1  0.66683742  0.11302045  0.34185178  1
  O  O689  1  0.69220114  0.11785681  0.37203886  1
  C  C690  1  0.67439646  0.15919308  0.41365099  1
  C  C691  1  0.70774148  0.17185191  0.46615523  1
  O  O692  1  0.63353146  0.18646886  0.41150955  1
  H  H693  1  0.71119707  0.12737511  0.49207762  1
  H  H694  1  0.74515886  0.18687393  0.45200917  1
  H  H695  1  0.69202538  0.21042118  0.49343817  1
  H  H696  1  0.83316232  0.08697747  0.21684888  1
  O  O697  1  0.80779734  0.08214269  0.24703491  1
  C  C698  1  0.82560082  0.04080619  0.28864864  1
  C  C699  1  0.79225670  0.02814633  0.34115352  1
  O  O700  1  0.86646685  0.01353414  0.28651028  1
  H  H701  1  0.78880303  0.07262236  0.36707764  1
  H  H702  1  0.75483833  0.01312764  0.32700633  1
  H  H703  1  0.80797495  -0.01042316  0.36843654  1
  H  H704  1  0.58316253  0.01302336  0.46684824  1
  O  O705  1  0.55779863  0.01785030  0.49703537  1
  C  C706  1  0.57560156  0.05918312  0.53865407  1
  C  C707  1  0.54225417  0.07185634  0.59115213  1
  O  O708  1  0.61646317  0.08646527  0.53650999  1
  H  H709  1  0.53880297  0.02738566  0.61708082  1
  H  H710  1  0.50483325  0.08687115  0.57700334  1
  H  H711  1  0.55797659  0.11042514  0.61843518  1
  H  H712  1  0.41683445  -0.01301928  0.59185088  1
  O  O713  1  0.44220292  -0.01786068  0.62203630  1
  C  C714  1  0.42439833  -0.05919238  0.66364797  1
  C  C715  1  0.45774316  -0.07185508  0.71615332  1
  O  O716  1  0.38353193  -0.08646905  0.66150989  1
  H  H717  1  0.46119383  -0.02737909  0.74207586  1
  H  H718  1  0.49516359  -0.08687144  0.70200866  1
  H  H719  1  0.44202469  -0.11042139  0.74343766  1
  H  H720  1  0.66683899  0.11301806  0.59185299  1
  O  O721  1  0.69220432  0.11785997  0.62203403  1
  C  C722  1  0.67439704  0.15919274  0.66365293  1
  C  C723  1  0.70774327  0.17185348  0.71615384  1
  O  O724  1  0.63353405  0.18646787  0.66150824  1
  H  H725  1  0.71119644  0.12737612  0.74207571  1
  H  H726  1  0.74516209  0.18687678  0.70201197  1
  H  H727  1  0.69202560  0.21042422  0.74343673  1
  H  H728  1  0.83316420  0.08698018  0.46685067  1
  O  O729  1  0.80779690  0.08214443  0.49703775  1
  C  C730  1  0.82560135  0.04080797  0.53864838  1
  C  C731  1  0.79225482  0.02814585  0.59115528  1
  O  O732  1  0.86646479  0.01353359  0.53651118  1
  H  H733  1  0.78880375  0.07262054  0.61708041  1
  H  H734  1  0.75483582  0.01313004  0.57700706  1
  H  H735  1  0.80797432  -0.01042330  0.61843647  1
  H  H736  1  0.58315966  0.01302711  0.71684731  1
  O  O737  1  0.55780100  0.01784690  0.74704070  1
  C  C738  1  0.57560201  0.05918319  0.78865510  1
  C  C739  1  0.54225682  0.07185379  0.84115394  1
  O  O740  1  0.61646590  0.08646696  0.78650989  1
  H  H741  1  0.53879948  0.02738266  0.86708289  1
  H  H742  1  0.50483876  0.08687121  0.82700179  1
  H  H743  1  0.55797529  0.11042373  0.86843637  1
  H  H744  1  0.41683700  -0.01302230  0.84184861  1
  O  O745  1  0.44220364  -0.01785676  0.87203424  1
  C  C746  1  0.42439761  -0.05918787  0.91365066  1
  C  C747  1  0.45774549  -0.07185449  0.96615244  1
  O  O748  1  0.38353569  -0.08646558  0.91151113  1
  H  H749  1  0.46119468  -0.02738226  0.99207866  1
  H  H750  1  0.49516583  -0.08686871  0.95200541  1
  H  H751  1  0.44202518  -0.11042138  0.99343658  1
  H  H752  1  0.66683908  0.11302649  0.84184721  1
  O  O753  1  0.69220177  0.11785431  0.87203486  1
  C  C754  1  0.67439713  0.15918286  0.91365521  1
  C  C755  1  0.70774470  0.17185484  0.96615286  1
  O  O756  1  0.63353549  0.18646754  0.91150927  1
  H  H757  1  0.71119890  0.12738249  0.99207886  1
  H  H758  1  0.74516469  0.18687286  0.95200479  1
  H  H759  1  0.69202408  0.21042261  0.99343699  1
  H  H760  1  0.83316626  0.08698536  0.71685351  1
  O  O761  1  0.80779475  0.08214300  0.74703321  1
  C  C762  1  0.82560001  0.04080951  0.78864973  1
  C  C763  1  0.79225356  0.02814294  0.84115394  1
  O  O764  1  0.86646363  0.01353848  0.78651361  1
  H  H765  1  0.78880662  0.07261602  0.86708072  1
  H  H766  1  0.75483233  0.01312920  0.82700954  1
  H  H767  1  0.80797611  -0.01042691  0.86843503  1
  H  H768  1  0.58316168  0.21302573  -0.03315114  1
  O  O769  1  0.55780046  0.21785082  -0.00296189  1
  C  C770  1  0.57560322  0.25918303  0.03865673  1
  C  C771  1  0.54225655  0.27185568  0.09115351  1
  O  O772  1  0.61646518  0.28646919  0.03650874  1
  H  H773  1  0.53880208  0.22738385  0.11708131  1
  H  H774  1  0.50483692  0.28687424  0.07700420  1
  H  H775  1  0.55797749  0.31042408  0.11843786  1
  H  H776  1  0.41683767  0.18698454  0.09185333  1
  O  O777  1  0.44220484  0.18213967  0.12203798  1
  C  C778  1  0.42439971  0.14080278  0.16364755  1
  C  C779  1  0.45774316  0.12814738  0.21615468  1
  O  O780  1  0.38353215  0.11353241  0.16151005  1
  H  H781  1  0.46119656  0.17262551  0.24207614  1
  H  H782  1  0.49516122  0.11312801  0.20200961  1
  H  H783  1  0.44202742  0.08957853  0.24343812  1
  H  H784  1  0.66684060  0.31302264  0.09184895  1
  O  O785  1  0.69220307  0.31785391  0.12203742  1
  C  C786  1  0.67439821  0.35918630  0.16365379  1
  C  C787  1  0.70774412  0.37185321  0.21615383  1
  O  O788  1  0.63353463  0.38646707  0.16150850  1
  H  H789  1  0.71119868  0.32737955  0.24207981  1
  H  H790  1  0.74516348  0.38687276  0.20200587  1
  H  H791  1  0.69202538  0.41042289  0.24343688  1
  H  H792  1  0.83316295  0.28697885  -0.03314956  1
  O  O793  1  0.80779618  0.28214038  -0.00296468  1
  C  C794  1  0.82560413  0.24081257  0.03865321  1
  C  C795  1  0.79225661  0.22814533  0.09115402  1
  O  O796  1  0.86646623  0.21353291  0.03651039  1
  H  H797  1  0.78880420  0.27261967  0.11707825  1
  H  H798  1  0.75483725  0.21312560  0.07700882  1
  H  H799  1  0.80797593  0.18957626  0.11843738  1
  H  H800  1  0.58316154  0.21301798  0.21685211  1
  O  O801  1  0.55779603  0.21786253  0.24703783  1
  C  C802  1  0.57559973  0.25920002  0.28864642  1
  C  C803  1  0.54225843  0.27185256  0.34115438  1
  O  O804  1  0.61647006  0.28646948  0.28650914  1
  H  H805  1  0.53880270  0.22737286  0.36707413  1
  H  H806  1  0.50484082  0.28687238  0.32700760  1
  H  H807  1  0.55797229  0.31042058  0.36843939  1
  H  H808  1  0.41683848  0.18697957  0.34185111  1
  O  O809  1  0.44220198  0.18214237  0.37203687  1
  C  C810  1  0.42439640  0.14080408  0.41365016  1
  C  C811  1  0.45774101  0.12814958  0.46615482  1
  O  O812  1  0.38353175  0.11353203  0.41150883  1
  H  H813  1  0.46119669  0.17262712  0.49207752  1
  H  H814  1  0.49515786  0.11312596  0.45201005  1
  H  H815  1  0.44202563  0.08957879  0.49343693  1
  H  H816  1  0.66683988  0.31302153  0.34185111  1
  O  O817  1  0.69220258  0.31786087  0.37203940  1
  C  C818  1  0.67439852  0.35919336  0.41365128  1
  C  C819  1  0.70774148  0.37185067  0.46615497  1
  O  O820  1  0.63352886  0.38646914  0.41150914  1
  H  H821  1  0.71120034  0.32737069  0.49207498  1
  H  H822  1  0.74515815  0.38687457  0.45200726  1
  H  H823  1  0.69202891  0.41042077  0.49343931  1
  H  H824  1  0.83316223  0.28697841  0.21685005  1
  O  O825  1  0.80779815  0.28214262  0.24703906  1
  C  C826  1  0.82560153  0.24080727  0.28864962  1
  C  C827  1  0.79225759  0.22814688  0.34115443  1
  O  O828  1  0.86646820  0.21353033  0.28650950  1
  H  H829  1  0.78880196  0.27262305  0.36707741  1
  H  H830  1  0.75483949  0.21312748  0.32700664  1
  H  H831  1  0.80797379  0.18957808  0.36843791  1
  H  H832  1  0.58316468  0.21301995  0.46685087  1
  O  O833  1  0.55780028  0.21785014  0.49704100  1
  C  C834  1  0.57559892  0.25919472  0.53864714  1
  C  C835  1  0.54225700  0.27185425  0.59115415  1
  O  O836  1  0.61646621  0.28646887  0.53651030  1
  H  H837  1  0.53880306  0.22738045  0.61708103  1
  H  H838  1  0.50483867  0.28686972  0.57700494  1
  H  H839  1  0.55797462  0.31042361  0.61843626  1
  H  H840  1  0.41683727  0.18698142  0.59185217  1
  O  O841  1  0.44220328  0.18213952  0.62203181  1
  C  C842  1  0.42439582  0.14080775  0.66365226  1
  C  C843  1  0.45774325  0.12814698  0.71615213  1
  O  O844  1  0.38353372  0.11353297  0.66150875  1
  H  H845  1  0.46119562  0.17262355  0.74207380  1
  H  H846  1  0.49516265  0.11312587  0.70200995  1
  H  H847  1  0.44202639  0.08957702  0.74343564  1
  H  H848  1  0.66683863  0.31302494  0.59184855  1
  O  O849  1  0.69220132  0.31785729  0.62203496  1
  C  C850  1  0.67439897  0.35919047  0.66365164  1
  C  C851  1  0.70774260  0.37185161  0.71615337  1
  O  O852  1  0.63353222  0.38646696  0.66150989  1
  H  H853  1  0.71119971  0.32737549  0.74207679  1
  H  H854  1  0.74516057  0.38687425  0.70200778  1
  H  H855  1  0.69202632  0.41042184  0.74343626  1
  H  H856  1  0.83316008  0.28697019  0.46684576  1
  O  O857  1  0.80780102  0.28215198  0.49703765  1
  C  C858  1  0.82560252  0.24081282  0.53865370  1
  C  C859  1  0.79225616  0.22814624  0.59115347  1
  O  O860  1  0.86646444  0.21353351  0.53651020  1
  H  H861  1  0.78879990  0.27261763  0.61708273  1
  H  H862  1  0.75483860  0.21312725  0.57700194  1
  H  H863  1  0.80797567  0.18957530  0.61843502  1
  H  H864  1  0.58316307  0.21301533  0.71685434  1
  O  O865  1  0.55779742  0.21785310  0.74703801  1
  C  C866  1  0.57559825  0.25920128  0.78864642  1
  C  C867  1  0.54225677  0.27185402  0.84115508  1
  O  O868  1  0.61646554  0.28646482  0.78651139  1
  H  H869  1  0.53880463  0.22737793  0.86708072  1
  H  H870  1  0.50483894  0.28687010  0.82700897  1
  H  H871  1  0.55797328  0.31042656  0.86843513  1
  H  H872  1  0.41683776  0.18698451  0.84185351  1
  O  O873  1  0.44220453  0.18213369  0.87203496  1
  C  C874  1  0.42439819  0.14080085  0.91364818  1
  C  C875  1  0.45774052  0.12814983  0.96615379  1
  O  O876  1  0.38352871  0.11353104  0.91150855  1
  H  H877  1  0.46119745  0.17263242  0.99207049  1
  H  H878  1  0.49515746  0.11312511  0.95201130  1
  H  H879  1  0.44202921  0.08957879  0.99343792  1
  H  H880  1  0.66684109  0.31302523  0.84184866  1
  O  O881  1  0.69220025  0.31785449  0.87203899  1
  C  C882  1  0.67440107  0.35920035  0.91364818  1
  C  C883  1  0.70774148  0.37185000  0.96615523  1
  O  O884  1  0.63353043  0.38646693  0.91150917  1
  H  H885  1  0.71120240  0.32737039  0.99207835  1
  H  H886  1  0.74515636  0.38687559  0.95200541  1
  H  H887  1  0.69202658  0.41042120  0.99343823  1
  H  H888  1  0.83316340  0.28698074  0.71685150  1
  O  O889  1  0.80779806  0.28214612  0.74703718  1
  C  C890  1  0.82560100  0.24081128  0.78865231  1
  C  C891  1  0.79225589  0.22814549  0.84115332  1
  O  O892  1  0.86646596  0.21353437  0.78651103  1
  H  H893  1  0.78880411  0.27261830  0.86708031  1
  H  H894  1  0.75483618  0.21312958  0.82700690  1
  H  H895  1  0.80797441  0.18957501  0.86843606  1
  H  H896  1  0.58316289  0.41302518  -0.03315093  1
  O  O897  1  0.55780082  0.41785261  -0.00296067  1
  C  C898  1  0.57560214  0.45918961  0.03865215  1
  C  C899  1  0.54225785  0.47185398  0.09115387  1
  O  O900  1  0.61646675  0.48647052  0.03650959  1
  H  H901  1  0.53880203  0.42738005  0.11707926  1
  H  H902  1  0.50483983  0.48687327  0.07700550  1
  H  H903  1  0.55797551  0.51042252  0.11843770  1
  H  H904  1  0.41683664  0.38698530  0.09185411  1
  O  O905  1  0.44220440  0.38214118  0.12203695  1
  C  C906  1  0.42439882  0.34080193  0.16364789  1
  C  C907  1  0.45774392  0.32814724  0.21615443  1
  O  O908  1  0.38353314  0.31353425  0.16151095  1
  H  H909  1  0.46119490  0.37262384  0.24207795  1
  H  H910  1  0.49516207  0.31312946  0.20200903  1
  H  H911  1  0.44202751  0.28957642  0.24343678  1
  H  H912  1  0.66683805  0.51302181  0.09185032  1
  O  O913  1  0.69220164  0.51785361  0.12204068  1
  C  C914  1  0.67439901  0.55919405  0.16364922  1
  C  C915  1  0.70774273  0.57185285  0.21615574  1
  O  O916  1  0.63353307  0.58646785  0.16151111  1
  H  H917  1  0.71119823  0.52737799  0.24208121  1
  H  H918  1  0.74516007  0.58687100  0.20200576  1
  H  H919  1  0.69202484  0.61042035  0.24343923  1
  H  H920  1  0.83316465  0.48698726  -0.03314403  1
  O  O921  1  0.80779403  0.48213489  -0.00296740  1
  C  C922  1  0.82560512  0.44080579  0.03865138  1
  C  C923  1  0.79225643  0.42814649  0.09115378  1
  O  O924  1  0.86646685  0.41353338  0.03651004  1
  H  H925  1  0.78880796  0.47262368  0.11707436  1
  H  H926  1  0.75483627  0.41312682  0.07701217  1
  H  H927  1  0.80797352  0.38957727  0.11843785  1
  H  H928  1  0.58316320  0.41302241  0.21684852  1
  O  O929  1  0.55779616  0.41785963  0.24703268  1
  C  C930  1  0.57560389  0.45918387  0.28865342  1
  C  C931  1  0.54225462  0.47185570  0.34115233  1
  O  O932  1  0.61646496  0.48646729  0.28650922  1
  H  H933  1  0.53880561  0.42738232  0.36707676  1
  H  H934  1  0.50483294  0.48687030  0.32700540  1
  H  H935  1  0.55797619  0.51042287  0.36843740  1
  H  H936  1  0.41683906  0.38698340  0.34185413  1
  O  O937  1  0.44220207  0.38213806  0.37204126  1
  C  C938  1  0.42440021  0.34079619  0.41364717  1
  C  C939  1  0.45773855  0.32815009  0.46615595  1
  O  O940  1  0.38352548  0.31353171  0.41150963  1
  H  H941  1  0.46120063  0.37263294  0.49207426  1
  H  H942  1  0.49515338  0.31312273  0.45200995  1
  H  H943  1  0.44202796  0.28957994  0.49344029  1
  H  H944  1  0.66683899  0.51302135  0.34185072  1
  O  O945  1  0.69220303  0.51785565  0.37203622  1
  C  C946  1  0.67439727  0.55918921  0.41365350  1
  C  C947  1  0.70774313  0.57185279  0.46615471  1
  O  O948  1  0.63353432  0.58646622  0.41150937  1
  H  H949  1  0.71119653  0.52737805  0.49207953  1
  H  H950  1  0.74516186  0.58687374  0.45200948  1
  H  H951  1  0.69202385  0.61042262  0.49343791  1
  H  H952  1  0.83316492  0.48697962  0.21684943  1
  O  O953  1  0.80779645  0.48214258  0.24703493  1
  C  C954  1  0.82560144  0.44080780  0.28864851  1
  C  C955  1  0.79225536  0.42814561  0.34115316  1
  O  O956  1  0.86646542  0.41353531  0.28651175  1
  H  H957  1  0.78880411  0.47262009  0.36707852  1
  H  H958  1  0.75483645  0.41312973  0.32700607  1
  H  H959  1  0.80797432  0.38957482  0.36843510  1
  H  H960  1  0.58316441  0.41302434  0.46684772  1
  O  O961  1  0.55779961  0.41785065  0.49703465  1
  C  C962  1  0.57560165  0.45918430  0.53865334  1
  C  C963  1  0.54225426  0.47185543  0.59115136  1
  O  O964  1  0.61646375  0.48646469  0.53651180  1
  H  H965  1  0.53880346  0.42738495  0.61708082  1
  H  H966  1  0.50483379  0.48687073  0.57700334  1
  H  H967  1  0.55797592  0.51042497  0.61843394  1
  H  H968  1  0.41683700  0.38697900  0.59185057  1
  O  O969  1  0.44220162  0.38214336  0.62203646  1
  C  C970  1  0.42439855  0.34080651  0.66364983  1
  C  C971  1  0.45774289  0.32814610  0.71615316  1
  O  O972  1  0.38353247  0.31353282  0.66150994  1
  H  H973  1  0.46119723  0.37262137  0.74207752  1
  H  H974  1  0.49516118  0.31312655  0.70200773  1
  H  H975  1  0.44202500  0.28957752  0.74343668  1
  H  H976  1  0.66683706  0.51302280  0.59184902  1
  O  O977  1  0.69220477  0.51785815  0.62203723  1
  C  C978  1  0.67439843  0.55918443  0.66365205  1
  C  C979  1  0.70774551  0.57185582  0.71615446  1
  O  O980  1  0.63353455  0.58646575  0.66151242  1
  H  H981  1  0.71119599  0.52738394  0.74208041  1
  H  H982  1  0.74516643  0.58687001  0.70200566  1
  H  H983  1  0.69202417  0.61042070  0.74343957  1
  H  H984  1  0.83316492  0.48698394  0.46685273  1
  O  O985  1  0.80779743  0.48214652  0.49703904  1
  C  C986  1  0.82559840  0.44080115  0.53864497  1
  C  C987  1  0.79225571  0.42814503  0.59115399  1
  O  O988  1  0.86646488  0.41353225  0.53651056  1
  H  H989  1  0.78880572  0.47261872  0.61708062  1
  H  H990  1  0.75483662  0.41313139  0.57700721  1
  H  H991  1  0.80797370  0.38957640  0.61843595  1
  H  H992  1  0.58316392  0.41302058  0.71685046  1
  O  O993  1  0.55779787  0.41785074  0.74703662  1
  C  C994  1  0.57559852  0.45918999  0.78864994  1
  C  C995  1  0.54225323  0.47185943  0.84115306  1
  O  O996  1  0.61646281  0.48646420  0.78651222  1
  H  H997  1  0.53880548  0.42738885  0.86708279  1
  H  H998  1  0.50483182  0.48687062  0.82700504  1
  H  H999  1  0.55797749  0.51042719  0.86843533  1
  H  H1000  1  0.41683978  0.38698221  0.84185212  1
  O  O1001  1  0.44220390  0.38213272  0.87203744  1
  C  C1002  1  0.42439851  0.34080417  0.91364963  1
  C  C1003  1  0.45773976  0.32814951  0.96615430  1
  O  O1004  1  0.38352530  0.31353020  0.91150803  1
  H  H1005  1  0.46120068  0.37263224  0.99207029  1
  H  H1006  1  0.49515656  0.31312296  0.95200830  1
  H  H1007  1  0.44202872  0.28958090  0.99344019  1
  H  H1008  1  0.66684163  0.51301896  0.84185289  1
  O  O1009  1  0.69220365  0.51785856  0.87203734  1
  C  C1010  1  0.67439969  0.55919830  0.91365045  1
  C  C1011  1  0.70774161  0.57185023  0.96615606  1
  O  O1012  1  0.63353132  0.58646657  0.91150876  1
  H  H1013  1  0.71120025  0.52737041  0.99207680  1
  H  H1014  1  0.74515797  0.58687567  0.95201026  1
  H  H1015  1  0.69202726  0.61042181  0.99343854  1
  H  H1016  1  0.83316277  0.48697750  0.71684912  1
  O  O1017  1  0.80779708  0.48214591  0.74703899  1
  C  C1018  1  0.82560306  0.44081762  0.78865371  1
  C  C1019  1  0.79225419  0.42814241  0.84115363  1
  O  O1020  1  0.86646515  0.41353356  0.78651186  1
  H  H1021  1  0.78880402  0.47261237  0.86708124  1
  H  H1022  1  0.75483250  0.41313180  0.82700256  1
  H  H1023  1  0.80797611  0.38957651  0.86843823  1
  H  H1024  1  0.58316231  0.61302366  -0.03315099  1
  O  O1025  1  0.55779979  0.61785213  -0.00296083  1
  C  C1026  1  0.57559870  0.65919846  0.03864693  1
  C  C1027  1  0.54225776  0.67185312  0.09115465  1
  O  O1028  1  0.61646621  0.68646905  0.03650958  1
  H  H1029  1  0.53880212  0.62737710  0.11708009  1
  H  H1030  1  0.50484055  0.68687367  0.07700813  1
  H  H1031  1  0.55797574  0.71042289  0.11843655  1
  H  H1032  1  0.41683646  0.58698217  0.09185172  1
  O  O1033  1  0.44220310  0.58214408  0.12203676  1
  C  C1034  1  0.42439792  0.54080947  0.16365005  1
  C  C1035  1  0.45774388  0.52814624  0.21615363  1
  O  O1036  1  0.38353421  0.51353339  0.16151026  1
  H  H1037  1  0.46119531  0.57261999  0.24207862  1
  H  H1038  1  0.49516279  0.51312925  0.20200797  1
  H  H1039  1  0.44202527  0.48957751  0.24343644  1
  H  H1040  1  0.66683881  0.71301676  0.09185316  1
  O  O1041  1  0.69220343  0.71786336  0.12204036  1
  C  C1042  1  0.67439991  0.75919791  0.16364750  1
  C  C1043  1  0.70774054  0.77185077  0.21615548  1
  O  O1044  1  0.63352698  0.78646869  0.16151013  1
  H  H1045  1  0.71120011  0.72736927  0.24207364  1
  H  H1046  1  0.74515658  0.78687295  0.20200704  1
  H  H1047  1  0.69202954  0.81041920  0.24344021  1
  H  H1048  1  0.83316214  0.68698530  -0.03314522  1
  O  O1049  1  0.80779573  0.68213246  -0.00296102  1
  C  C1050  1  0.82560279  0.64080374  0.03864924  1
  C  C1051  1  0.79225974  0.62814732  0.09115554  1
  O  O1052  1  0.86647438  0.61353110  0.03650962  1
  H  H1053  1  0.78880205  0.67262924  0.11707235  1
  H  H1054  1  0.75484227  0.61312421  0.07700896  1
  H  H1055  1  0.80797244  0.58958017  0.11844119  1
  H  H1056  1  0.58316195  0.61302307  0.21684943  1
  O  O1057  1  0.55779934  0.61785487  0.24703994  1
  C  C1058  1  0.57559999  0.65919636  0.28864836  1
  C  C1059  1  0.54225789  0.67185277  0.34115414  1
  O  O1060  1  0.61646814  0.68647022  0.28650893  1
  H  H1061  1  0.53880145  0.62737587  0.36707793  1
  H  H1062  1  0.50484019  0.68687198  0.32700540  1
  H  H1063  1  0.55797395  0.71042097  0.36843856  1
  H  H1064  1  0.41683803  0.58697500  0.34184757  1
  O  O1065  1  0.44220207  0.58214274  0.37203573  1
  C  C1066  1  0.42439380  0.54081804  0.41365520  1
  C  C1067  1  0.45774321  0.52814699  0.46615373  1
  O  O1068  1  0.38353408  0.51353083  0.41150870  1
  H  H1069  1  0.46119616  0.57262069  0.49207839  1
  H  H1070  1  0.49516279  0.51312691  0.45200726  1
  H  H1071  1  0.44202451  0.48957780  0.49343616  1
  H  H1072  1  0.66684235  0.71302655  0.34184888  1
  O  O1073  1  0.69219922  0.71785415  0.37204253  1
  C  C1074  1  0.67439924  0.75919698  0.41365115  1
  C  C1075  1  0.70773933  0.77184908  0.46615523  1
  O  O1076  1  0.63352819  0.78646973  0.41150867  1
  H  H1077  1  0.71120361  0.72737043  0.49207783  1
  H  H1078  1  0.74515322  0.78687545  0.45200540  1
  H  H1079  1  0.69202793  0.81042089  0.49343884  1
  H  H1080  1  0.83316268  0.68697685  0.21684956  1
  O  O1081  1  0.80779923  0.68214307  0.24703749  1
  C  C1082  1  0.82560207  0.64080653  0.28865006  1
  C  C1083  1  0.79225742  0.62814692  0.34115404  1
  O  O1084  1  0.86646829  0.61353063  0.28650940  1
  H  H1085  1  0.78880214  0.67262364  0.36707728  1
  H  H1086  1  0.75483958  0.61312771  0.32700535  1
  H  H1087  1  0.80797423  0.58957749  0.36843802  1
  H  H1088  1  0.58316369  0.61302278  0.46684865  1
  O  O1089  1  0.55780096  0.61784741  0.49704292  1
  C  C1090  1  0.57559682  0.65919432  0.53864590  1
  C  C1091  1  0.54225691  0.67185440  0.59115461  1
  O  O1092  1  0.61646635  0.68646853  0.53651087  1
  H  H1093  1  0.53880239  0.62738135  0.61708341  1
  H  H1094  1  0.50483867  0.68686836  0.57700432  1
  H  H1095  1  0.55797601  0.71042103  0.61843745  1
  H  H1096  1  0.41683449  0.58697652  0.59184736  1
  O  O1097  1  0.44220234  0.58214326  0.62203496  1
  C  C1098  1  0.42439765  0.54081926  0.66365138  1
  C  C1099  1  0.45774518  0.52814250  0.71615146  1
  O  O1100  1  0.38353462  0.51353246  0.66151072  1
  H  H1101  1  0.46119499  0.57261305  0.74207747  1
  H  H1102  1  0.49516767  0.51312989  0.70200447  1
  H  H1103  1  0.44202285  0.48957909  0.74343688  1
  H  H1104  1  0.66684154  0.71302399  0.59185067  1
  O  O1105  1  0.69219917  0.71785695  0.62204008  1
  C  C1106  1  0.67440009  0.75919978  0.66365097  1
  C  C1107  1  0.70773910  0.77184751  0.71615539  1
  O  O1108  1  0.63352626  0.78646746  0.66150963  1
  H  H1109  1  0.71120526  0.72736594  0.74207659  1
  H  H1110  1  0.74515246  0.78687714  0.70200633  1
  H  H1111  1  0.69202914  0.81042060  0.74343885  1
  H  H1112  1  0.83316492  0.68697929  0.46684932  1
  O  O1113  1  0.80779600  0.68214365  0.49703470  1
  C  C1114  1  0.82560127  0.64081435  0.53865045  1
  C  C1115  1  0.79225303  0.62814231  0.59115296  1
  O  O1116  1  0.86646354  0.61353617  0.53651268  1
  H  H1117  1  0.78880563  0.67261297  0.61708087  1
  H  H1118  1  0.75483116  0.61313202  0.57700432  1
  H  H1119  1  0.80797611  0.58957621  0.61843621  1
  H  H1120  1  0.58316159  0.61302407  0.71685000  1
  O  O1121  1  0.55780091  0.61784712  0.74703915  1
  C  C1122  1  0.57560223  0.65918126  0.78865727  1
  C  C1123  1  0.54225574  0.67185709  0.84115322  1
  O  O1124  1  0.61646352  0.68646911  0.78650891  1
  H  H1125  1  0.53880158  0.62738607  0.86708165  1
  H  H1126  1  0.50483540  0.68687495  0.82700541  1
  H  H1127  1  0.55797672  0.71042639  0.86843544  1
  H  H1128  1  0.41683875  0.58697698  0.84184855  1
  O  O1129  1  0.44220372  0.58214151  0.87203527  1
  C  C1130  1  0.42439721  0.54081192  0.91365252  1
  C  C1131  1  0.45774356  0.52814647  0.96615337  1
  O  O1132  1  0.38353372  0.51353205  0.91150907  1
  H  H1133  1  0.46119687  0.57262104  0.99207731  1
  H  H1134  1  0.49516306  0.51312773  0.95200747  1
  H  H1135  1  0.44202406  0.48957862  0.99343864  1
  H  H1136  1  0.66683854  0.71302480  0.84184773  1
  O  O1137  1  0.69220249  0.71785532  0.87203961  1
  C  C1138  1  0.67440090  0.75919150  0.91364870  1
  C  C1139  1  0.70774398  0.77185368  0.96615523  1
  O  O1140  1  0.63353338  0.78646775  0.91151124  1
  H  H1141  1  0.71119908  0.72737947  0.99208155  1
  H  H1142  1  0.74516204  0.78687027  0.95200448  1
  H  H1143  1  0.69202551  0.81042078  0.99343854  1
  H  H1144  1  0.83316187  0.68697597  0.71684922  1
  O  O1145  1  0.80779761  0.68214231  0.74704121  1
  C  C1146  1  0.82560243  0.64081312  0.78865226  1
  C  C1147  1  0.79225715  0.62814592  0.84115466  1
  O  O1148  1  0.86646793  0.61352824  0.78650974  1
  H  H1149  1  0.78880267  0.67262055  0.86707855  1
  H  H1150  1  0.75483797  0.61312981  0.82700551  1
  H  H1151  1  0.80797396  0.58957971  0.86844029  1
  H  H1152  1  0.58315962  0.81302659  -0.03315172  1
  O  O1153  1  0.55779961  0.81785448  -0.00296379  1
  C  C1154  1  0.57560273  0.85918903  0.03865422  1
  C  C1155  1  0.54225843  0.87185244  0.09115347  1
  O  O1156  1  0.61646666  0.88646977  0.03650716  1
  H  H1157  1  0.53880118  0.82737671  0.11707734  1
  H  H1158  1  0.50484055  0.88687683  0.07700876  1
  H  H1159  1  0.55797569  0.91042303  0.11843639  1
  H  H1160  1  0.41683843  0.78698056  0.09185190  1
  O  O1161  1  0.44220261  0.78214713  0.12203701  1
  C  C1162  1  0.42439913  0.74080739  0.16365123  1
  C  C1163  1  0.45774370  0.72814614  0.21615417  1
  O  O1164  1  0.38353502  0.71353493  0.16151049  1
  H  H1165  1  0.46119651  0.77261977  0.24208103  1
  H  H1166  1  0.49516225  0.71312740  0.20200860  1
  H  H1167  1  0.44202513  0.68957555  0.24343577  1
  H  H1168  1  0.66683769  0.91301888  0.09185035  1
  O  O1169  1  0.69220374  0.91785504  0.12203961  1
  C  C1170  1  0.67440049  0.95919613  0.16364634  1
  C  C1171  1  0.70774376  0.97185312  0.21615505  1
  O  O1172  1  0.63353392  0.98646626  0.16151131  1
  H  H1173  1  0.71119586  0.92737896  0.24208030  1
  H  H1174  1  0.74516173  0.98686859  0.20200685  1
  H  H1175  1  0.69202533  1.01042132  0.24343812  1
  H  H1176  1  0.83316205  0.88697838  -0.03315045  1
  O  O1177  1  0.80779546  0.88213924  -0.00296114  1
  C  C1178  1  0.82560324  0.84081069  0.03865096  1
  C  C1179  1  0.79225688  0.82814542  0.09115503  1
  O  O1180  1  0.86646793  0.81353199  0.03651099  1
  H  H1181  1  0.78880464  0.87261987  0.11707827  1
  H  H1182  1  0.75483707  0.81313070  0.07700464  1
  H  H1183  1  0.80797549  0.78958060  0.11844166  1
  H  H1184  1  0.58316132  0.81302717  0.21684658  1
  O  O1185  1  0.55779948  0.81785407  0.24703661  1
  C  C1186  1  0.57560259  0.85918991  0.28865153  1
  C  C1187  1  0.54225677  0.87185238  0.34115316  1
  O  O1188  1  0.61646679  0.88646721  0.28650984  1
  H  H1189  1  0.53880091  0.82737828  0.36707891  1
  H  H1190  1  0.50483925  0.88687252  0.32700388  1
  H  H1191  1  0.55797529  0.91042181  0.36843680  1
  H  H1192  1  0.41683897  0.78698365  0.34185526  1
  O  O1193  1  0.44220395  0.78213629  0.37203783  1
  C  C1194  1  0.42439640  0.74080611  0.41365293  1
  C  C1195  1  0.45774056  0.72814701  0.46615461  1
  O  O1196  1  0.38352974  0.71352916  0.41150806  1
  H  H1197  1  0.46119723  0.77262613  0.49207297  1
  H  H1198  1  0.49515867  0.71312326  0.45201176  1
  H  H1199  1  0.44202688  0.68957934  0.49344045  1
  H  H1200  1  0.66683872  0.91302272  0.34184961  1
  O  O1201  1  0.69220294  0.91785685  0.37203705  1
  C  C1202  1  0.67439673  0.95918324  0.41365492  1
  C  C1203  1  0.70774448  0.97185400  0.46615445  1
  O  O1204  1  0.63353387  0.98646754  0.41150976  1
  H  H1205  1  0.71119667  0.92737984  0.49207922  1
  H  H1206  1  0.74516509  0.98687139  0.45200551  1
  H  H1207  1  0.69202506  1.01042132  0.49343884  1
  H  H1208  1  0.83316402  0.88698095  0.21685134  1
  O  O1209  1  0.80779708  0.88214146  0.24703568  1
  C  C1210  1  0.82560225  0.84080749  0.28864978  1
  C  C1211  1  0.79225625  0.82814618  0.34115373  1
  O  O1212  1  0.86646677  0.81353281  0.28651025  1
  H  H1213  1  0.78880438  0.87262208  0.36707720  1
  H  H1214  1  0.75483716  0.81312820  0.32700672  1
  H  H1215  1  0.80797432  0.78957675  0.36843706  1
  H  H1216  1  0.58316199  0.81302741  0.46684612  1
  O  O1217  1  0.55780028  0.81784883  0.49703997  1
  C  C1218  1  0.57559879  0.85918798  0.53864962  1
  C  C1219  1  0.54225579  0.87185506  0.59115358  1
  O  O1220  1  0.61646469  0.88646872  0.53650984  1
  H  H1221  1  0.53880172  0.82738347  0.61708211  1
  H  H1222  1  0.50483652  0.88686961  0.57700241  1
  H  H1223  1  0.55797601  0.91042280  0.61843668  1
  H  H1224  1  0.41683628  0.78697653  0.59184865  1
  O  O1225  1  0.44220198  0.78214439  0.62203481  1
  C  C1226  1  0.42439788  0.74081054  0.66365092  1
  C  C1227  1  0.45774424  0.72814497  0.71615342  1
  O  O1228  1  0.38353520  0.71353353  0.66151067  1
  H  H1229  1  0.46119589  0.77261901  0.74207891  1
  H  H1230  1  0.49516413  0.71312711  0.70200716  1
  H  H1231  1  0.44202415  0.68957508  0.74343513  1
  H  H1232  1  0.66683558  0.91302243  0.59184809  1
  O  O1233  1  0.69220428  0.91786076  0.62203651  1
  C  C1234  1  0.67439718  0.95918488  0.66364999  1
  C  C1235  1  0.70774430  0.97185557  0.71615409  1
  O  O1236  1  0.63353302  0.98646731  0.66151103  1
  H  H1237  1  0.71119461  0.92738211  0.74207855  1
  H  H1238  1  0.74516518  0.98687011  0.70200551  1
  H  H1239  1  0.69202408  1.01042074  0.74343849  1
  H  H1240  1  0.83316053  0.88698199  0.46685320  1
  O  O1241  1  0.80779887  0.88214245  0.49703796  1
  C  C1242  1  0.82560082  0.84079822  0.53864947  1
  C  C1243  1  0.79225956  0.82815119  0.59115446  1
  O  O1244  1  0.86646999  0.81353147  0.53650808  1
  H  H1245  1  0.78879972  0.87263258  0.61707550  1
  H  H1246  1  0.75484478  0.81312377  0.57700974  1
  H  H1247  1  0.80797029  0.78957594  0.61843549  1
  H  H1248  1  0.58316240  0.81302665  0.71684711  1
  O  O1249  1  0.55780082  0.81784585  0.74703982  1
  C  C1250  1  0.57560022  0.85918379  0.78865314  1
  C  C1251  1  0.54225561  0.87185606  0.84115358  1
  O  O1252  1  0.61646343  0.88646756  0.78651010  1
  H  H1253  1  0.53880127  0.82738493  0.86708299  1
  H  H1254  1  0.50483643  0.88687334  0.82700432  1
  H  H1255  1  0.55797744  0.91042542  0.86843544  1
  H  H1256  1  0.41683678  0.78697811  0.84184809  1
  O  O1257  1  0.44220265  0.78214229  0.87204106  1
  C  C1258  1  0.42440083  0.74080937  0.91364611  1
  C  C1259  1  0.45774289  0.72814590  0.96615513  1
  O  O1260  1  0.38353072  0.71353055  0.91151020  1
  H  H1261  1  0.46119786  0.77262222  0.99207804  1
  H  H1262  1  0.49516212  0.71312996  0.95200489  1
  H  H1263  1  0.44202563  0.68958015  0.99343895  1
  H  H1264  1  0.66683764  0.91302074  0.84185072  1
  O  O1265  1  0.69220468  0.91785988  0.87203610  1
  C  C1266  1  0.67439830  0.95918522  0.91365304  1
  C  C1267  1  0.70774501  0.97185563  0.96615327  1
  O  O1268  1  0.63353446  0.98646929  0.91150969  1
  H  H1269  1  0.71119676  0.92738153  0.99207690  1
  H  H1270  1  0.74516558  0.98687198  0.95200727  1
  H  H1271  1  0.69202654  1.01042318  0.99343771  1
  H  H1272  1  0.83316295  0.88698532  0.71685444  1
  O  O1273  1  0.80779725  0.88214186  0.74704152  1
  C  C1274  1  0.82560091  0.84080346  0.78864854  1
  C  C1275  1  0.79225795  0.82814723  0.84115585  1
  O  O1276  1  0.86646999  0.81353135  0.78650984  1
  H  H1277  1  0.78880267  0.87262541  0.86707762  1
  H  H1278  1  0.75483967  0.81312738  0.82700825  1
  H  H1279  1  0.80797396  0.78958037  0.86844009  1
