# generated using pymatgen
data_H9C8NO2
_symmetry_space_group_name_H-M   'P 1'
_cell_length_a   22.17900000
_cell_length_b   34.32800000
_cell_length_c   23.61000000
_cell_angle_alpha   90.00000000
_cell_angle_beta   90.00000000
_cell_angle_gamma   90.00000000
_symmetry_Int_Tables_number   1
_chemical_formula_structural   H9C8NO2
_chemical_formula_sum   'H864 C768 N96 O192'
_cell_volume   17975.72641032
_cell_formula_units_Z   96
loop_
 _symmetry_equiv_pos_site_id
 _symmetry_equiv_pos_as_xyz
  1  'x, y, z'
loop_
 _atom_site_type_symbol
 _atom_site_label
 _atom_site_symmetry_multiplicity
 _atom_site_fract_x
 _atom_site_fract_y
 _atom_site_fract_z
 _atom_site_occupancy
  H  H0  1  0.05988664  0.20194331  0.38347195  1
  C  C1  1  0.05208329  0.17309687  0.40034698  1
  C  C2  1  0.04573561  0.16662697  0.45875986  1
  C  C3  1  0.04837744  0.14200407  0.36237561  1
  C  C4  1  0.03322056  0.12887211  0.47739569  1
  N  N5  1  0.04954053  0.19524766  0.50076066  1
  C  C6  1  0.03739262  0.10422818  0.38167742  1
  H  H7  1  0.05414264  0.14729895  0.31754136  1
  H  H8  1  0.02749669  0.12322902  0.52217910  1
  C  C9  1  0.02860198  0.09802096  0.43944099  1
  H  H10  1  0.03205484  0.18748363  0.53915256  1
  C  C11  1  0.07516510  0.23207211  0.49837365  1
  O  O12  1  0.03500726  0.07373481  0.34442237  1
  H  H13  1  0.01776971  0.06929052  0.45546744  1
  C  C14  1  0.07068961  0.25735667  0.55118563  1
  O  O15  1  0.10120407  0.24487551  0.45651498  1
  H  H16  1  0.03514513  0.04908059  0.36472395  1
  H  H17  1  0.03421169  0.24724152  0.57866911  1
  H  H18  1  0.06116455  0.28741133  0.53923542  1
  H  H19  1  0.11288675  0.25633046  0.57499992  1
  H  H20  1  -0.05989013  -0.20194016  -0.38347417  1
  C  C21  1  -0.05208740  -0.17309432  -0.40034998  1
  C  C22  1  -0.04574410  -0.16662525  -0.45876557  1
  C  C23  1  -0.04837877  -0.14200203  -0.36237890  1
  C  C24  1  -0.03322596  -0.12887003  -0.47739832  1
  N  N25  1  -0.04954755  -0.19524608  -0.50076344  1
  C  C26  1  -0.03739354  -0.10422556  -0.38168002  1
  H  H27  1  -0.05414563  -0.14729581  -0.31754313  1
  H  H28  1  -0.02750403  -0.12322641  -0.52218248  1
  C  C29  1  -0.02860225  -0.09801917  -0.43944503  1
  H  H30  1  -0.03206845  -0.18747694  -0.53915978  1
  C  C31  1  -0.07516581  -0.23207150  -0.49837804  1
  O  O32  1  -0.03500300  -0.07373230  -0.34442684  1
  H  H33  1  -0.01776858  -0.06928829  -0.45547093  1
  C  C34  1  -0.07069199  -0.25735358  -0.55119154  1
  O  O35  1  -0.10119839  -0.24487876  -0.45651356  1
  H  H36  1  -0.03512317  -0.04907821  -0.36473004  1
  H  H37  1  -0.03421297  -0.24723787  -0.57867602  1
  H  H38  1  -0.06117096  -0.28740916  -0.53924517  1
  H  H39  1  -0.11288931  -0.25632485  -0.57500518  1
  H  H40  1  0.22654495  -0.20194496  -0.13347693  1
  C  C41  1  0.21874636  -0.17309852  -0.15035091  1
  C  C42  1  0.21240635  -0.16662764  -0.20876661  1
  C  C43  1  0.21503977  -0.14200829  -0.11237647  1
  C  C44  1  0.19989090  -0.12887155  -0.22739500  1
  N  N45  1  0.21620469  -0.19525008  -0.25076383  1
  C  C46  1  0.20405928  -0.10423037  -0.13167575  1
  H  H47  1  0.22080675  -0.14730360  -0.06754053  1
  H  H48  1  0.19417080  -0.12322558  -0.27217819  1
  C  C49  1  0.19526783  -0.09802176  -0.18944006  1
  H  H50  1  0.19872167  -0.18748083  -0.28916031  1
  C  C51  1  0.24183275  -0.23207169  -0.24837831  1
  O  O52  1  0.20167099  -0.07373846  -0.09442055  1
  H  H53  1  0.18443644  -0.06928940  -0.20546319  1
  C  C54  1  0.23735798  -0.25735585  -0.30119032  1
  O  O55  1  0.26787390  -0.24487721  -0.20651554  1
  H  H56  1  0.20179605  -0.04908256  -0.11471993  1
  H  H57  1  0.20088156  -0.24723990  -0.32867766  1
  H  H58  1  0.22783527  -0.28741063  -0.28924200  1
  H  H59  1  0.27955535  -0.25632970  -0.32500264  1
  H  H60  1  0.10677596  0.20193569  0.63346600  1
  C  C61  1  0.11457989  0.17309093  0.65034529  1
  C  C62  1  0.12092527  0.16662493  0.70876168  1
  C  C63  1  0.11828696  0.14199629  0.61237837  1
  C  C64  1  0.13344270  0.12887119  0.72739923  1
  N  N65  1  0.11712197  0.19524876  0.75075531  1
  C  C66  1  0.12927253  0.10422109  0.63168326  1
  H  H67  1  0.11251878  0.14728732  0.56754190  1
  H  H68  1  0.13916511  0.12323087  0.77218456  1
  C  C69  1  0.13806402  0.09801778  0.68944953  1
  H  H70  1  0.13460558  0.18748425  0.78915106  1
  C  C71  1  0.09149420  0.23207119  0.74836588  1
  O  O72  1  0.13166311  0.07372554  0.59443361  1
  H  H73  1  0.14889593  0.06928811  0.70547987  1
  C  C74  1  0.09597108  0.25735858  0.80117393  1
  O  O75  1  0.06545300  0.24487185  0.70650302  1
  H  H76  1  0.13153870  0.04907276  0.61473984  1
  H  H77  1  0.13245129  0.24724478  0.82865811  1
  H  H78  1  0.10549268  0.28741281  0.78921942  1
  H  H79  1  0.05377498  0.25633218  0.82498968  1
  H  H80  1  -0.05988933  0.04805947  0.63347054  1
  C  C81  1  -0.05208700  0.07690492  0.65034782  1
  C  C82  1  -0.04574347  0.08337241  0.70876416  1
  C  C83  1  -0.04838044  0.10799771  0.61237827  1
  C  C84  1  -0.03322652  0.12112719  0.72739827  1
  N  N85  1  -0.04954458  0.05474992  0.75075880  1
  C  C86  1  -0.03739674  0.14577402  0.63168154  1
  H  H87  1  -0.05414872  0.10270527  0.56754220  1
  H  H88  1  -0.02750501  0.12676932  0.77218274  1
  C  C89  1  -0.02860497  0.15197906  0.68944665  1
  H  H90  1  -0.03205938  0.06251540  0.78915454  1
  C  C91  1  -0.07517470  0.01792786  0.74837254  1
  O  O92  1  -0.03500709  0.17626830  0.59442993  1
  H  H93  1  -0.01777327  0.18070969  0.70547462  1
  C  C94  1  -0.07069840  -0.00735782  0.80118150  1
  O  O95  1  -0.10121806  0.00512609  0.70651009  1
  H  H96  1  -0.03513132  0.20092226  0.61473363  1
  H  H97  1  -0.03422138  0.00275790  0.82866825  1
  H  H98  1  -0.06117331  -0.03741204  0.78922997  1
  H  H99  1  -0.11289591  -0.00633308  0.82499488  1
  H  H100  1  0.05989139  0.45194427  -0.13347324  1
  C  C101  1  0.05208826  0.42309838  -0.15034789  1
  C  C102  1  0.04574267  0.41662845  -0.20876238  1
  C  C103  1  0.04838114  0.39200604  -0.11237609  1
  C  C104  1  0.03322684  0.37887347  -0.22739543  1
  N  N105  1  0.04954476  0.44525045  -0.25076070  1
  C  C106  1  0.03739617  0.35423005  -0.13167735  1
  H  H107  1  0.05414803  0.39730069  -0.06754101  1
  H  H108  1  0.02750505  0.37322957  -0.27217920  1
  C  C109  1  0.02860513  0.34802271  -0.18944141  1
  H  H110  1  0.03205937  0.43748434  -0.28915475  1
  C  C111  1  0.07517138  0.48207309  -0.24837473  1
  O  O112  1  0.03500760  0.32373691  -0.09442257  1
  H  H113  1  0.01777154  0.31929191  -0.20546703  1
  C  C114  1  0.07069669  0.50735804  -0.30118593  1
  O  O115  1  0.10121340  0.49487687  -0.20651447  1
  H  H116  1  0.03513948  0.29908231  -0.11472353  1
  H  H117  1  0.03421972  0.49724279  -0.32867165  1
  H  H118  1  0.06117175  0.53741262  -0.28923605  1
  H  H119  1  0.11289429  0.50633236  -0.32499926  1
  H  H120  1  0.10678334  0.45194048  -0.38347212  1
  C  C121  1  0.11458370  0.42309481  -0.40034892  1
  C  C122  1  0.12092635  0.41662660  -0.45876506  1
  C  C123  1  0.11828947  0.39200225  -0.36237834  1
  C  C124  1  0.13344045  0.37887145  -0.47739826  1
  N  N125  1  0.11712720  0.44525000  -0.50075960  1
  C  C126  1  0.12927129  0.35422564  -0.38168093  1
  H  H127  1  0.11252279  0.39729541  -0.31754217  1
  H  H128  1  0.13916127  0.37322818  -0.52218253  1
  C  C129  1  0.13806148  0.34801959  -0.43944619  1
  H  H130  1  0.13461121  0.43748319  -0.53915610  1
  C  C131  1  0.09149977  0.48207229  -0.49837294  1
  O  O132  1  0.13166038  0.32373177  -0.34442841  1
  H  H133  1  0.14889214  0.31928865  -0.45547330  1
  C  C134  1  0.09597646  0.50735825  -0.55118215  1
  O  O135  1  0.06545774  0.49487531  -0.45651018  1
  H  H136  1  0.13153499  0.29907759  -0.36473120  1
  H  H137  1  0.13245412  0.49724300  -0.57866855  1
  H  H138  1  0.10550038  0.53741262  -0.53923083  1
  H  H139  1  0.05377947  0.50633305  -0.57499624  1
  H  H140  1  0.22654777  0.04805573  0.38347334  1
  C  C141  1  0.21874742  0.07690254  0.40034872  1
  C  C142  1  0.21240221  0.08337261  0.45876148  1
  C  C143  1  0.21504290  0.10799625  0.36237827  1
  C  C144  1  0.19988922  0.12112743  0.47739882  1
  N  N145  1  0.21620808  0.05475125  0.50076152  1
  C  C146  1  0.20405963  0.14577189  0.38168015  1
  H  H147  1  0.22080757  0.10270165  0.31754414  1
  H  H148  1  0.19416790  0.12677053  0.52218284  1
  C  C149  1  0.19527006  0.15197900  0.43944392  1
  H  H150  1  0.19872079  0.06251359  0.53915267  1
  C  C151  1  0.24183410  0.01792719  0.49837415  1
  O  O152  1  0.20167347  0.17626574  0.34442530  1
  H  H153  1  0.18443882  0.18070886  0.45547148  1
  C  C154  1  0.23735970  -0.00735886  0.55118513  1
  O  O155  1  0.26787417  0.00512616  0.45651584  1
  H  H156  1  0.20180529  0.20091931  0.36472827  1
  H  H157  1  0.20088042  0.00275451  0.57866779  1
  H  H158  1  0.22783699  -0.03741343  0.53923168  1
  H  H159  1  0.27955672  -0.00633214  0.57499987  1
  H  H160  1  0.05987845  0.20193980  0.88347130  1
  C  C161  1  0.05208027  0.17309603  0.90035197  1
  C  C162  1  0.04574532  0.16662525  0.95876512  1
  C  C163  1  0.04837195  0.14200381  0.86237505  1
  C  C164  1  0.03322656  0.12887245  0.97739752  1
  N  N165  1  0.04954055  0.19525485  1.00076355  1
  C  C166  1  0.03739541  0.10422706  0.88167948  1
  H  H167  1  0.05414162  0.14729662  0.81753887  1
  H  H168  1  0.02750670  0.12322706  1.02217962  1
  C  C169  1  0.02860108  0.09801939  0.93944302  1
  H  H170  1  0.03206323  0.18748088  1.03915904  1
  C  C171  1  0.07517321  0.23207077  0.99836795  1
  O  O172  1  0.03500600  0.07373158  0.84442660  1
  H  H173  1  0.01777188  0.06928770  0.95547008  1
  C  C174  1  0.07069310  0.25735964  1.05117893  1
  O  O175  1  0.10121510  0.24487563  0.95650272  1
  H  H176  1  0.03512822  0.04907726  0.86472954  1
  H  H177  1  0.03421399  0.24724395  1.07866614  1
  H  H178  1  0.06117526  0.28741378  1.03922458  1
  H  H179  1  0.11288896  0.25633281  1.07499201  1
  H  H180  1  -0.05988545  -0.20194093  0.11652880  1
  C  C181  1  -0.05208541  -0.17309508  0.09965240  1
  C  C182  1  -0.04574474  -0.16662608  0.04123638  1
  C  C183  1  -0.04837833  -0.14200316  0.13762365  1
  C  C184  1  -0.03323201  -0.12887047  0.02260372  1
  N  N185  1  -0.04954533  -0.19524898  -0.00075889  1
  C  C186  1  -0.03739619  -0.10422617  0.11832210  1
  H  H187  1  -0.05414388  -0.14729676  0.18245966  1
  H  H188  1  -0.02751431  -0.12322660  -0.02218061  1
  C  C189  1  -0.02860847  -0.09801960  0.06055679  1
  H  H190  1  -0.03206405  -0.18748112  -0.03915603  1
  C  C191  1  -0.07516944  -0.23207187  0.00162833  1
  O  O192  1  -0.03500437  -0.07373335  0.15557562  1
  H  H193  1  -0.01777736  -0.06928846  0.04452977  1
  C  C194  1  -0.07069327  -0.25735691  -0.05118227  1
  O  O195  1  -0.10120900  -0.24487674  0.04349163  1
  H  H196  1  -0.03513204  -0.04907845  0.13527380  1
  H  H197  1  -0.03421620  -0.24724058  -0.07866854  1
  H  H198  1  -0.06116871  -0.28741142  -0.03923277  1
  H  H199  1  -0.11289071  -0.25633119  -0.07499535  1
  H  H200  1  0.22656656  -0.20194313  0.36652837  1
  C  C201  1  0.21876040  -0.17309716  0.34965289  1
  C  C202  1  0.21240832  -0.16662884  0.29123920  1
  C  C203  1  0.21505586  -0.14200345  0.38762261  1
  C  C204  1  0.19989045  -0.12887410  0.27260322  1
  N  N205  1  0.21620996  -0.19525013  0.24924055  1
  C  C206  1  0.20406801  -0.10422790  0.36832116  1
  H  H207  1  0.22082482  -0.14729678  0.43245722  1
  H  H208  1  0.19416388  -0.12323186  0.22781933  1
  C  C209  1  0.19527288  -0.09802215  0.31055701  1
  H  H210  1  0.19872194  -0.18748613  0.21084877  1
  C  C211  1  0.24183533  -0.23207447  0.25162544  1
  O  O212  1  0.20168231  -0.07373423  0.40557575  1
  H  H213  1  0.18443809  -0.06929226  0.29452973  1
  C  C214  1  0.23736045  -0.25735811  0.19881278  1
  O  O215  1  0.26787468  -0.24487746  0.29348449  1
  H  H216  1  0.20181985  -0.04908043  0.38527299  1
  H  H217  1  0.20088225  -0.24724261  0.17132906  1
  H  H218  1  0.22783615  -0.28741298  0.21076284  1
  H  H219  1  0.27955793  -0.25633119  0.17499910  1
  H  H220  1  0.10679093  0.20194348  1.13347121  1
  C  C221  1  0.11458748  0.17309701  1.15034844  1
  C  C222  1  0.12093016  0.16662709  1.20875857  1
  C  C223  1  0.11829130  0.14200242  1.11237828  1
  C  C224  1  0.13343789  0.12887324  1.22740126  1
  N  N225  1  0.11712411  0.19524930  1.25076255  1
  C  C226  1  0.12927415  0.10422807  1.13168433  1
  H  H227  1  0.11252855  0.14729749  1.06754438  1
  H  H228  1  0.13915622  0.12323034  1.27218276  1
  C  C229  1  0.13805829  0.09802082  1.18944626  1
  H  H230  1  0.13460812  0.18748604  1.28915188  1
  C  C231  1  0.09149948  0.23207308  1.24837109  1
  O  O232  1  0.13166380  0.07373318  1.09443004  1
  H  H233  1  0.14888782  0.06929134  1.20547584  1
  C  C234  1  0.09597045  0.25735800  1.30118429  1
  O  O235  1  0.06546131  0.24487621  1.20651333  1
  H  H236  1  0.13154746  0.04908003  1.11473248  1
  H  H237  1  0.13244630  0.24724320  1.32866887  1
  H  H238  1  0.10549739  0.28741254  1.28923589  1
  H  H239  1  0.05377206  0.25633192  1.32499666  1
  H  H240  1  -0.05987080  0.04805550  1.13346869  1
  C  C241  1  -0.05207473  0.07690214  1.15034541  1
  C  C242  1  -0.04573162  0.08337326  1.20875513  1
  C  C243  1  -0.04837090  0.10799742  1.11237505  1
  C  C244  1  -0.03322531  0.12112646  1.22739854  1
  N  N245  1  -0.04954079  0.05475056  1.25076012  1
  C  C246  1  -0.03738748  0.14577147  1.13168100  1
  H  H247  1  -0.05413234  0.10270176  1.06754236  1
  H  H248  1  -0.02750743  0.12676954  1.27218084  1
  C  C249  1  -0.02860436  0.15197910  1.18944333  1
  H  H250  1  -0.03205711  0.06251352  1.28914875  1
  C  C251  1  -0.07516463  0.01792723  1.24836715  1
  O  O252  1  -0.03499852  0.17626615  1.09442651  1
  H  H253  1  -0.01777464  0.18070806  1.20547291  1
  C  C254  1  -0.07069348  -0.00735867  1.30118136  1
  O  O255  1  -0.10120221  0.00512450  1.20651111  1
  H  H256  1  -0.03512061  0.20091908  1.11472915  1
  H  H257  1  -0.03421650  0.00275550  1.32866433  1
  H  H258  1  -0.06116760  -0.03741315  1.28923145  1
  H  H259  1  -0.11289156  -0.00633173  1.32499404  1
  H  H260  1  0.05988130  0.45194274  0.36652991  1
  C  C261  1  0.05208048  0.42309644  0.34965400  1
  C  C262  1  0.04573425  0.41662636  0.29124208  1
  C  C263  1  0.04837496  0.39200225  0.38762403  1
  C  C264  1  0.03322255  0.37887253  0.27260284  1
  N  N265  1  0.04954117  0.44524788  0.24923989  1
  C  C266  1  0.03738931  0.35422751  0.36832050  1
  H  H267  1  0.05413891  0.39729701  0.43245803  1
  H  H268  1  0.02750175  0.37322953  0.22781940  1
  C  C269  1  0.02860172  0.34802049  0.31055706  1
  H  H270  1  0.03205573  0.43748486  0.21084963  1
  C  C271  1  0.07516620  0.48207222  0.25162910  1
  O  O272  1  0.03500129  0.32373340  0.40557477  1
  H  H273  1  0.01776960  0.31929105  0.29452897  1
  C  C274  1  0.07069456  0.50735662  0.19881519  1
  O  O275  1  0.10120341  0.49487506  0.29348666  1
  H  H276  1  0.03512874  0.29907981  0.38527231  1
  H  H277  1  0.03421795  0.49724182  0.17133114  1
  H  H278  1  0.06116914  0.53741137  0.21076438  1
  H  H279  1  0.11289316  0.50632972  0.17500311  1
  H  H280  1  0.10678500  0.45194406  0.11652959  1
  C  C281  1  0.11458396  0.42309720  0.09965357  1
  C  C282  1  0.12093058  0.41662695  0.04124297  1
  C  C283  1  0.11828669  0.39200229  0.13762336  1
  C  C284  1  0.13344071  0.37887315  0.02260145  1
  N  N285  1  0.11712458  0.44524899  -0.00075982  1
  C  C286  1  0.12927164  0.35422751  0.11831930  1
  H  H287  1  0.11252191  0.39729684  0.18245643  1
  H  H288  1  0.13916153  0.37323051  -0.02218178  1
  C  C289  1  0.13805984  0.34802098  0.06055651  1
  H  H290  1  0.13461101  0.43748684  -0.03914853  1
  C  C291  1  0.09149863  0.48207305  0.00162974  1
  O  O292  1  0.13165857  0.32373306  0.15557375  1
  H  H293  1  0.14889206  0.31929178  0.04452727  1
  C  C294  1  0.09597112  0.50735783  -0.05118396  1
  O  O295  1  0.06545953  0.49487461  0.04348578  1
  H  H296  1  0.13153345  0.29908023  0.13526979  1
  H  H297  1  0.13244752  0.49724282  -0.07866772  1
  H  H298  1  0.10549787  0.53741244  -0.03923333  1
  H  H299  1  0.05377234  0.50633184  -0.07499604  1
  H  H300  1  0.22654804  0.04806136  0.88347373  1
  C  C301  1  0.21874860  0.07690458  0.90035510  1
  C  C302  1  0.21241145  0.08337619  0.95876573  1
  C  C303  1  0.21504067  0.10799691  0.86237575  1
  C  C304  1  0.19989088  0.12112805  0.97739944  1
  N  N305  1  0.21620288  0.05474417  1.00076658  1
  C  C306  1  0.20406413  0.14577355  0.88168099  1
  H  H307  1  0.22081234  0.10270397  0.81754059  1
  H  H308  1  0.19416813  0.12677369  1.02218002  1
  C  C309  1  0.19526745  0.15198160  0.93944332  1
  H  H310  1  0.19872364  0.06251962  1.03916015  1
  C  C311  1  0.24183670  0.01793041  0.99836896  1
  O  O312  1  0.20167482  0.17626936  0.84442791  1
  H  H313  1  0.18443856  0.18071344  0.95547048  1
  C  C314  1  0.23735086  -0.00736071  1.05117954  1
  O  O315  1  0.26788309  0.00512562  0.95650616  1
  H  H316  1  0.20178981  0.20092355  0.86473096  1
  H  H317  1  0.20086802  0.00275412  1.07866311  1
  H  H318  1  0.22783661  -0.03741460  1.03922236  1
  H  H319  1  0.27954388  -0.00633311  1.07499645  1
  H  H320  1  0.05987974  0.70194720  0.38346576  1
  C  C321  1  0.05208152  0.67310083  0.40034269  1
  C  C322  1  0.04573012  0.66662857  0.45874855  1
  C  C323  1  0.04838235  0.64200328  0.36237231  1
  C  C324  1  0.03322563  0.62887644  0.47739625  1
  N  N325  1  0.04953623  0.69525269  0.50075783  1
  C  C326  1  0.03739799  0.60423066  0.38167856  1
  H  H327  1  0.05414582  0.64729957  0.31754138  1
  H  H328  1  0.02750343  0.62323351  0.52217794  1
  C  C329  1  0.02861086  0.59802218  0.43943917  1
  H  H330  1  0.03204927  0.68749117  0.53914131  1
  C  C331  1  0.07515859  0.73207658  0.49836410  1
  O  O332  1  0.03501490  0.57373495  0.34442172  1
  H  H333  1  0.01778043  0.56929433  0.45546961  1
  C  C334  1  0.07068558  0.75736313  0.55117902  1
  O  O335  1  0.10119653  0.74487880  0.45651180  1
  H  H336  1  0.03515102  0.54908303  0.36472448  1
  H  H337  1  0.03420465  0.74725125  0.57865729  1
  H  H338  1  0.06116342  0.78741792  0.53922618  1
  H  H339  1  0.11288168  0.75633433  0.57499543  1
  H  H340  1  -0.05988328  0.29805437  -0.38347122  1
  C  C341  1  -0.05208282  0.32690081  -0.40034599  1
  C  C342  1  -0.04573995  0.33337092  -0.45876047  1
  C  C343  1  -0.04837641  0.35799302  -0.36237415  1
  C  C344  1  -0.03322604  0.37112639  -0.47739448  1
  N  N345  1  -0.04954387  0.30474993  -0.50075884  1
  C  C346  1  -0.03739306  0.39576953  -0.38167576  1
  H  H347  1  -0.05414137  0.35269837  -0.31753931  1
  H  H348  1  -0.02750646  0.37677018  -0.52217814  1
  C  C349  1  -0.02860399  0.40197676  -0.43943988  1
  H  H350  1  -0.03205949  0.31251534  -0.53915327  1
  C  C351  1  -0.07516898  0.26792633  -0.49837319  1
  O  O352  1  -0.03500501  0.42626260  -0.34442144  1
  H  H353  1  -0.01777197  0.43070759  -0.45546618  1
  C  C354  1  -0.07069327  0.24264188  -0.55118422  1
  O  O355  1  -0.10120919  0.25512260  -0.45651250  1
  H  H356  1  -0.03513608  0.45091706  -0.36472309  1
  H  H357  1  -0.03421655  0.25275819  -0.57866946  1
  H  H358  1  -0.06116679  0.21258745  -0.53923481  1
  H  H359  1  -0.11289075  0.24366708  -0.57499780  1
  H  H360  1  0.22655406  0.29805875  -0.13347058  1
  C  C361  1  0.21875144  0.32690488  -0.15034692  1
  C  C362  1  0.21240384  0.33337401  -0.20875954  1
  C  C363  1  0.21504624  0.35799927  -0.11237753  1
  C  C364  1  0.19989163  0.37112823  -0.22739869  1
  N  N365  1  0.21620939  0.30475191  -0.25075964  1
  C  C366  1  0.20405979  0.39577411  -0.13168094  1
  H  H367  1  0.22081147  0.35270542  -0.06754332  1
  H  H368  1  0.19417050  0.37677050  -0.27218281  1
  C  C369  1  0.19527138  0.40198023  -0.18944496  1
  H  H370  1  0.19872480  0.31251579  -0.28915130  1
  C  C371  1  0.24183240  0.26792760  -0.24837127  1
  O  O372  1  0.20167082  0.42626815  -0.09442665  1
  H  H373  1  0.18443856  0.43070971  -0.20547385  1
  C  C374  1  0.23735766  0.24264237  -0.30118333  1
  O  O375  1  0.26787110  0.25512500  -0.20651280  1
  H  H376  1  0.20180417  0.45092157  -0.11472975  1
  H  H377  1  0.20088096  0.25275819  -0.32866733  1
  H  H378  1  0.22783022  0.21258807  -0.28923249  1
  H  H379  1  0.27955602  0.24366781  -0.32499616  1
  H  H380  1  0.10677950  0.70194686  0.63346756  1
  C  C381  1  0.11458123  0.67310000  0.65034247  1
  C  C382  1  0.12093278  0.66662892  0.70875260  1
  C  C383  1  0.11828288  0.64200564  0.61237191  1
  C  C384  1  0.13344344  0.62887477  0.72739236  1
  N  N385  1  0.11712799  0.69525068  0.75075693  1
  C  C386  1  0.12926988  0.60423094  0.63167442  1
  H  H387  1  0.11251610  0.64730116  0.56753902  1
  H  H388  1  0.13916700  0.62323199  0.77217522  1
  C  C389  1  0.13806070  0.59802329  0.68943650  1
  H  H390  1  0.13461717  0.68748790  0.78914464  1
  C  C391  1  0.09150312  0.73207429  0.74836901  1
  O  O392  1  0.13165395  0.57373704  0.59441882  1
  H  H393  1  0.14889335  0.56929381  0.70546417  1
  C  C394  1  0.09597564  0.75735827  0.80118377  1
  O  O395  1  0.06546258  0.74487727  0.70651438  1
  H  H396  1  0.13152254  0.54908359  0.61472070  1
  H  H397  1  0.13245285  0.74724333  0.82866623  1
  H  H398  1  0.10550144  0.78741313  0.78923502  1
  H  H399  1  0.05377768  0.75633085  0.82499655  1
  H  H400  1  -0.05988428  0.54805738  0.63347150  1
  C  C401  1  -0.05208295  0.57690313  0.65034782  1
  C  C402  1  -0.04573874  0.58337154  0.70876355  1
  C  C403  1  -0.04837691  0.60799648  0.61237807  1
  C  C404  1  -0.03322484  0.62112693  0.72739847  1
  N  N405  1  -0.04954075  0.55474957  0.75075880  1
  C  C406  1  -0.03739418  0.64577243  0.63168094  1
  H  H407  1  -0.05414196  0.60270297  0.56754245  1
  H  H408  1  -0.02750389  0.62676930  0.77218299  1
  C  C409  1  -0.02860473  0.65197841  0.68944574  1
  H  H410  1  -0.03205621  0.56251408  0.78915398  1
  C  C411  1  -0.07516770  0.51792599  0.74837274  1
  O  O412  1  -0.03500609  0.67626658  0.59442776  1
  H  H413  1  -0.01777355  0.68070914  0.70547391  1
  C  C414  1  -0.07069067  0.49263992  0.80118120  1
  O  O415  1  -0.10120983  0.50512412  0.70651095  1
  H  H416  1  -0.03513988  0.70092034  0.61473080  1
  H  H417  1  -0.03421095  0.50275386  0.82866548  1
  H  H418  1  -0.06116788  0.46258524  0.78922876  1
  H  H419  1  -0.11288685  0.49366596  0.82499725  1
  H  H420  1  0.05987092  0.95194563  -0.13347123  1
  C  C421  1  0.05207463  0.92309863  -0.15034528  1
  C  C422  1  0.04573037  0.91662561  -0.20875477  1
  C  C423  1  0.04837058  0.89200372  -0.11237375  1
  C  C424  1  0.03322556  0.87887195  -0.22739609  1
  N  N425  1  0.04953900  0.94524764  -0.25076068  1
  C  C426  1  0.03738827  0.85422992  -0.13167702  1
  H  H427  1  0.05412987  0.89730119  -0.06754075  1
  H  H428  1  0.02750738  0.87322715  -0.27217854  1
  C  C429  1  0.02860525  0.84801984  -0.18943945  1
  H  H430  1  0.03205497  0.93748404  -0.28914915  1
  C  C431  1  0.07515898  0.98207209  -0.24836998  1
  O  O432  1  0.03500116  0.82373633  -0.09441955  1
  H  H433  1  0.01777548  0.81929064  -0.20546636  1
  C  C434  1  0.07068767  1.00735670  -0.30118507  1
  O  O435  1  0.10119670  0.99487618  -0.20651495  1
  H  H436  1  0.03513469  0.79908243  -0.11471957  1
  H  H437  1  0.03421212  0.99724127  -0.32866801  1
  H  H438  1  0.06115905  1.03741120  -0.28923670  1
  H  H439  1  0.11288603  1.00633115  -0.32499757  1
  H  H440  1  0.10678822  0.95194625  -0.38346864  1
  C  C441  1  0.11458768  0.92310023  -0.40034584  1
  C  C442  1  0.12094231  0.91662095  -0.45873921  1
  C  C443  1  0.11828851  0.89199955  -0.36236920  1
  C  C444  1  0.13344663  0.87887458  -0.47739922  1
  N  N445  1  0.11712334  0.94524973  -0.50076682  1
  C  C446  1  0.12927827  0.85423089  -0.38167982  1
  H  H447  1  0.11252801  0.89729931  -0.31754363  1
  H  H448  1  0.13917079  0.87322930  -0.52217627  1
  C  C449  1  0.13806441  0.84801831  -0.43943392  1
  H  H450  1  0.13460613  0.93748501  -0.53914040  1
  C  C451  1  0.09150603  0.98206813  -0.49836274  1
  O  O452  1  0.13166036  0.82373397  -0.34441717  1
  H  H453  1  0.14889815  0.81929300  -0.45546527  1
  C  C454  1  0.09597204  1.00735760  -0.55118523  1
  O  O455  1  0.06546845  0.99487320  -0.45651765  1
  H  H456  1  0.13152320  0.79908347  -0.36471923  1
  H  H457  1  0.13244924  0.99724314  -0.57866133  1
  H  H458  1  0.10550154  1.03741037  -0.53923153  1
  H  H459  1  0.05377386  1.00633067  -0.57499821  1
  H  H460  1  0.22655637  0.54806200  0.38347296  1
  C  C461  1  0.21875230  0.57690750  0.40035034  1
  C  C462  1  0.21240570  0.58337480  0.45876546  1
  C  C463  1  0.21504567  0.60800064  0.36238094  1
  C  C464  1  0.19988912  0.62112936  0.47740129  1
  N  N465  1  0.21620824  0.55475144  0.50076152  1
  C  C466  1  0.20405908  0.64577674  0.38168452  1
  H  H467  1  0.22081353  0.60270811  0.31754560  1
  H  H468  1  0.19416668  0.62677152  0.52218551  1
  C  C469  1  0.19526733  0.65198147  0.43944932  1
  H  H470  1  0.19872332  0.56251679  0.53915630  1
  C  C471  1  0.24183544  0.51792915  0.49837329  1
  O  O472  1  0.20166989  0.67627026  0.34443154  1
  H  H473  1  0.18443425  0.68071192  0.45547734  1
  C  C474  1  0.23735994  0.49264236  0.55118281  1
  O  O475  1  0.26787772  0.50512697  0.45651175  1
  H  H476  1  0.20180265  0.70092451  0.36473496  1
  H  H477  1  0.20088282  0.50275743  0.57866895  1
  H  H478  1  0.22783462  0.46258834  0.53923057  1
  H  H479  1  0.27955764  0.49366721  0.57499599  1
  H  H480  1  0.05988888  0.70194248  0.88347019  1
  C  C481  1  0.05208618  0.67309708  0.90034682  1
  C  C482  1  0.04574151  0.66662802  0.95876139  1
  C  C483  1  0.04838019  0.64200530  0.86237323  1
  C  C484  1  0.03322287  0.62887324  0.97739318  1
  N  N485  1  0.04953863  0.69525172  1.00075810  1
  C  C486  1  0.03739739  0.60422858  0.88167544  1
  H  H487  1  0.05415001  0.64729873  0.81753786  1
  H  H488  1  0.02749928  0.62322942  1.02217649  1
  C  C489  1  0.02860251  0.59802162  0.93943949  1
  H  H490  1  0.03205649  0.68748256  1.03915409  1
  C  C491  1  0.07516631  0.73207297  0.99837169  1
  O  O492  1  0.03500978  0.57373454  0.84442251  1
  H  H493  1  0.01776970  0.56929048  0.95546564  1
  C  C494  1  0.07068810  0.75735792  1.05118247  1
  O  O495  1  0.10120890  0.74487804  0.95650878  1
  H  H496  1  0.03513394  0.54908018  0.86472480  1
  H  H497  1  0.03421050  0.74724125  1.07866836  1
  H  H498  1  0.06116442  0.78741243  1.03923215  1
  H  H499  1  0.11288470  0.75633245  1.07499635  1
  H  H500  1  -0.05988732  0.29805903  0.11652982  1
  C  C501  1  -0.05208534  0.32690491  0.09965284  1
  C  C502  1  -0.04573833  0.33337339  0.04123980  1
  C  C503  1  -0.04837971  0.35799916  0.13762194  1
  C  C504  1  -0.03322689  0.37112771  0.02260073  1
  N  N505  1  -0.04954271  0.30475153  -0.00076004  1
  C  C506  1  -0.03739308  0.39577401  0.11831767  1
  H  H507  1  -0.05414481  0.35270538  0.18245652  1
  H  H508  1  -0.02750614  0.37676987  -0.02218300  1
  C  C509  1  -0.02860573  0.40197999  0.06055347  1
  H  H510  1  -0.03205926  0.31251656  -0.03915258  1
  C  C511  1  -0.07516407  0.26792670  0.00162861  1
  O  O512  1  -0.03500328  0.42626808  0.15557114  1
  H  H513  1  -0.01777332  0.43070940  0.04452458  1
  C  C514  1  -0.07068898  0.24264258  -0.05118439  1
  O  O515  1  -0.10120174  0.25512243  0.04348766  1
  H  H516  1  -0.03513114  0.45092167  0.13526801  1
  H  H517  1  -0.03421233  0.25275865  -0.07866834  1
  H  H518  1  -0.06116189  0.21258786  -0.03923613  1
  H  H519  1  -0.11288687  0.24366847  -0.07499739  1
  H  H520  1  0.22654718  0.29805677  0.36652928  1
  C  C521  1  0.21874741  0.32690335  0.34965390  1
  C  C522  1  0.21240148  0.33337290  0.29124036  1
  C  C523  1  0.21504378  0.35799698  0.38762355  1
  C  C524  1  0.19989014  0.37112792  0.27260355  1
  N  N525  1  0.21620485  0.30475111  0.24924135  1
  C  C526  1  0.20406004  0.39577272  0.36832131  1
  H  H527  1  0.22080940  0.35270253  0.43245808  1
  H  H528  1  0.19416916  0.37677081  0.22781945  1
  C  C529  1  0.19527081  0.40197933  0.31055701  1
  H  H530  1  0.19871852  0.31251444  0.21084923  1
  C  C531  1  0.24183076  0.26792736  0.25162880  1
  O  O532  1  0.20167337  0.42626621  0.40557510  1
  H  H533  1  0.18443968  0.43070947  0.29452962  1
  C  C534  1  0.23735828  0.24264240  0.19881667  1
  O  O535  1  0.26787081  0.25512486  0.29348729  1
  H  H536  1  0.20180084  0.45092025  0.38527271  1
  H  H537  1  0.20088157  0.25275720  0.17133181  1
  H  H538  1  0.22783323  0.21258776  0.21076671  1
  H  H539  1  0.27955648  0.24366880  0.17500416  1
  H  H540  1  0.10679008  0.70194380  1.13346848  1
  C  C541  1  0.11458930  0.67309743  1.15034713  1
  C  C542  1  0.12093700  0.66662781  1.20875473  1
  C  C543  1  0.11829114  0.64200106  1.11237657  1
  C  C544  1  0.13344597  0.62887505  1.22740096  1
  N  N545  1  0.11712900  0.69525130  1.25076103  1
  C  C546  1  0.12927610  0.60422767  1.13168423  1
  H  H547  1  0.11252683  0.64729526  1.06754458  1
  H  H548  1  0.13916755  0.62323324  1.27218326  1
  C  C549  1  0.13806320  0.59802135  1.18944606  1
  H  H550  1  0.13461475  0.68748922  1.28914733  1
  C  C551  1  0.09150326  0.73207422  1.24836705  1
  O  O552  1  0.13166107  0.57373190  1.09442994  1
  H  H553  1  0.14889406  0.56929277  1.20547726  1
  C  C554  1  0.09597552  0.75736133  1.30118126  1
  O  O555  1  0.06546494  0.74487533  1.20651232  1
  H  H556  1  0.13152928  0.54907966  1.11473430  1
  H  H557  1  0.13245331  0.74724743  1.32866352  1
  H  H558  1  0.10550050  0.78741563  1.28922872  1
  H  H559  1  0.05377739  0.75633419  1.32499393  1
  H  H560  1  -0.05987825  0.54805690  1.13347192  1
  C  C561  1  -0.05207733  0.57690288  1.15034793  1
  C  C562  1  -0.04573148  0.58337209  1.20876149  1
  C  C563  1  -0.04837225  0.60799641  1.11237758  1
  C  C564  1  -0.03321690  0.62112603  1.22739803  1
  N  N565  1  -0.04953440  0.55474978  1.25076053  1
  C  C566  1  -0.03738726  0.64577188  1.13168110  1
  H  H567  1  -0.05413991  0.60270235  1.06754297  1
  H  H568  1  -0.02749461  0.62676909  1.27218094  1
  C  C569  1  -0.02859652  0.65197834  1.18944464  1
  H  H570  1  -0.03204866  0.56251425  1.28915339  1
  C  C571  1  -0.07516397  0.51792745  1.24837341  1
  O  O572  1  -0.03499848  0.67626609  1.09442812  1
  H  H573  1  -0.01776442  0.68070838  1.20547221  1
  C  C574  1  -0.07069139  0.49264225  1.30118480  1
  O  O575  1  -0.10120658  0.50512519  1.20651374  1
  H  H576  1  -0.03511768  0.70091958  1.11473096  1
  H  H577  1  -0.03421477  0.50275695  1.32867049  1
  H  H578  1  -0.06116664  0.46258764  1.28923488  1
  H  H579  1  -0.11288923  0.49366814  1.32499757  1
  H  H580  1  0.05989528  0.95194105  0.36653211  1
  C  C581  1  0.05208954  0.92309558  0.34965728  1
  C  C582  1  0.04574089  0.91662644  0.29124122  1
  C  C583  1  0.04838374  0.89200351  0.38762872  1
  C  C584  1  0.03321960  0.87887118  0.27261067  1
  N  N585  1  0.04953964  0.94524945  0.24924633  1
  C  C586  1  0.03739757  0.85422672  0.36832944  1
  H  H587  1  0.05415496  0.89729660  0.43246479  1
  H  H588  1  0.02749340  0.87322784  0.22782650  1
  C  C589  1  0.02860003  0.84802046  0.31056451  1
  H  H590  1  0.03205489  0.93748174  0.21084959  1
  C  C591  1  0.07516866  0.98207049  0.25163006  1
  O  O592  1  0.03501073  0.82373383  0.40558287  1
  H  H593  1  0.01776484  0.81928925  0.29453957  1
  C  C594  1  0.07069280  1.00735524  0.19881966  1
  O  O595  1  0.10121270  0.99487452  0.29349264  1
  H  H596  1  0.03514195  0.79907909  0.38528066  1
  H  H597  1  0.03421385  0.99723967  0.17133436  1
  H  H598  1  0.06117086  1.03740995  0.21077092  1
  H  H599  1  0.11288917  1.00632872  0.17500478  1
  H  H600  1  0.10677030  0.95193639  0.11652870  1
  C  C601  1  0.11457452  0.92309141  0.09965161  1
  C  C602  1  0.12091900  0.91662338  0.04123552  1
  C  C603  1  0.11828333  0.89199851  0.13762147  1
  C  C604  1  0.13343499  0.87886924  0.02260140  1
  N  N605  1  0.11711646  0.94524570  -0.00075986  1
  C  C606  1  0.12927094  0.85422325  0.11831865  1
  H  H607  1  0.11251568  0.89729118  0.18245769  1
  H  H608  1  0.13915520  0.87322617  -0.02218307  1
  C  C609  1  0.13806032  0.84801713  0.06055322  1
  H  H610  1  0.13459665  0.93747855  -0.03915673  1
  C  C611  1  0.09149134  0.98206980  0.00162774  1
  O  O612  1  0.13166427  0.82372911  0.15557099  1
  H  H613  1  0.14889424  0.81928723  0.04452550  1
  C  C614  1  0.09597097  1.00735475  -0.05118230  1
  O  O615  1  0.06545175  0.99487368  0.04348977  1
  H  H616  1  0.13154040  0.79907513  0.13526855  1
  H  H617  1  0.13244683  0.99723738  -0.07866851  1
  H  H618  1  0.10549934  1.03740898  -0.03923245  1
  H  H619  1  0.05377342  1.00633136  -0.07499554  1
  H  H620  1  0.22654522  0.54805207  0.88346999  1
  C  C621  1  0.21874676  0.57689885  0.90034560  1
  C  C622  1  0.21239849  0.58337112  0.95875250  1
  C  C623  1  0.21504489  0.60799523  0.86237363  1
  C  C624  1  0.19989217  0.62112395  0.97739752  1
  N  N625  1  0.21620575  0.55474891  1.00076072  1
  C  C626  1  0.20406096  0.64576820  0.88167978  1
  H  H627  1  0.22080704  0.60269846  0.81754231  1
  H  H628  1  0.19417183  0.62676777  1.02217921  1
  C  C629  1  0.19527461  0.65197730  0.93943989  1
  H  H630  1  0.19871925  0.56251102  1.03914652  1
  C  C631  1  0.24183001  0.51792516  0.99837028  1
  O  O632  1  0.20167641  0.67626387  0.84442226  1
  H  H633  1  0.18444376  0.68070574  0.95546927  1
  C  C634  1  0.23735954  0.49264058  1.05118550  1
  O  O635  1  0.26786933  0.50512259  0.95651635  1
  H  H636  1  0.20181194  0.70091569  0.86472429  1
  H  H637  1  0.20088297  0.50275518  1.07866755  1
  H  H638  1  0.22783215  0.46258601  1.03923609  1
  H  H639  1  0.27955788  0.49366703  1.07499827  1
  H  H640  1  0.39322522  0.20194260  0.38347089  1
  C  C641  1  0.38542077  0.17309656  0.40034627  1
  C  C642  1  0.37906912  0.16662702  0.45875850  1
  C  C643  1  0.38171711  0.14200232  0.36237635  1
  C  C644  1  0.36655354  0.12887306  0.47739635  1
  N  N645  1  0.38287273  0.19524909  0.50075940  1
  C  C646  1  0.37072856  0.10422758  0.38167866  1
  H  H647  1  0.38748569  0.14729652  0.31754257  1
  H  H648  1  0.36082844  0.12323059  0.52217991  1
  C  C649  1  0.36193518  0.09802102  0.43944195  1
  H  H650  1  0.36538349  0.18748661  0.53914918  1
  C  C651  1  0.40849947  0.23207258  0.49837188  1
  O  O652  1  0.36834260  0.07373345  0.34442424  1
  H  H653  1  0.35110108  0.06929159  0.45546951  1
  C  C654  1  0.40402196  0.25735905  0.55118260  1
  O  O655  1  0.43454277  0.24487390  0.45651553  1
  H  H656  1  0.36847468  0.04907994  0.36472686  1
  H  H657  1  0.36754260  0.24724473  0.57866456  1
  H  H658  1  0.39449745  0.28741326  0.53922946  1
  H  H659  1  0.44621818  0.25633340  0.57499876  1
  H  H660  1  0.27345286  -0.20194296  -0.38346973  1
  C  C661  1  0.28125446  -0.17309694  -0.40034597  1
  C  C662  1  0.28760454  -0.16662422  -0.45875143  1
  C  C663  1  0.28495979  -0.14200052  -0.36237430  1
  C  C664  1  0.30011287  -0.12887314  -0.47739837  1
  N  N665  1  0.28379384  -0.19524831  -0.50076233  1
  C  C666  1  0.29594831  -0.10422844  -0.38168070  1
  H  H667  1  0.27919736  -0.14729702  -0.31754287  1
  H  H668  1  0.30583498  -0.12322967  -0.52217940  1
  C  C669  1  0.30473308  -0.09801956  -0.43944124  1
  H  H670  1  0.30127822  -0.18748505  -0.53914681  1
  C  C671  1  0.25817204  -0.23207098  -0.49836688  1
  O  O672  1  0.29833696  -0.07373365  -0.34442376  1
  H  H673  1  0.31556570  -0.06929180  -0.45547062  1
  C  C674  1  0.26264590  -0.25735846  -0.55118245  1
  O  O675  1  0.23213237  -0.24487426  -0.45651548  1
  H  H676  1  0.29820777  -0.04908096  -0.36472542  1
  H  H677  1  0.29912327  -0.24724407  -0.57866234  1
  H  H678  1  0.27217396  -0.28741232  -0.53923067  1
  H  H679  1  0.22044861  -0.25633282  -0.57499659  1
  H  H680  1  0.55987915  -0.20194843  -0.13347286  1
  C  C681  1  0.55207994  -0.17310194  -0.15034805  1
  C  C682  1  0.54573227  -0.16663169  -0.20876008  1
  C  C683  1  0.54837805  -0.14200756  -0.11237777  1
  C  C684  1  0.53322403  -0.12887740  -0.22739864  1
  N  N685  1  0.54953440  -0.19525386  -0.25076161  1
  C  C686  1  0.53739568  -0.10423241  -0.13168148  1
  H  H687  1  0.55414249  -0.14730253  -0.06754363  1
  H  H688  1  0.52750280  -0.12323421  -0.27218182  1
  C  C689  1  0.52860701  -0.09802497  -0.18944486  1
  H  H690  1  0.53204747  -0.18748944  -0.28915218  1
  C  C691  1  0.57515937  -0.23207715  -0.24837430  1
  O  O692  1  0.53501144  -0.07373834  -0.09442666  1
  H  H693  1  0.51777643  -0.06929517  -0.20547265  1
  C  C694  1  0.57068576  -0.25736111  -0.30118840  1
  O  O695  1  0.60120117  -0.24488060  -0.20651786  1
  H  H696  1  0.53514898  -0.04908447  -0.11472822  1
  H  H697  1  0.53420999  -0.24724496  -0.32867248  1
  H  H698  1  0.56115826  -0.28741565  -0.28924044  1
  H  H699  1  0.61288415  -0.25633520  -0.32500060  1
  H  H700  1  0.44011394  0.20194027  0.63346670  1
  C  C701  1  0.44791459  0.17309447  0.65034373  1
  C  C702  1  0.45425743  0.16662657  0.70875966  1
  C  C703  1  0.45162100  0.14200148  0.61237433  1
  C  C704  1  0.46677099  0.12887157  0.72739489  1
  N  N705  1  0.45045637  0.19524942  0.75075451  1
  C  C706  1  0.46260401  0.10422525  0.63167766  1
  H  H707  1  0.44585481  0.14729438  0.56753836  1
  H  H708  1  0.47249071  0.12322913  0.77217951  1
  C  C709  1  0.47139252  0.09801977  0.68944291  1
  H  H710  1  0.46793884  0.18748324  0.78915096  1
  C  C711  1  0.42483062  0.23207246  0.74836724  1
  O  O712  1  0.46499508  0.07373140  0.59442538  1
  H  H713  1  0.48222375  0.06928923  0.70547139  1
  C  C714  1  0.42930689  0.25735781  0.80117706  1
  O  O715  1  0.39878996  0.24487574  0.70650484  1
  H  H716  1  0.46487022  0.04907741  0.61472883  1
  H  H717  1  0.46578422  0.24724190  0.82866300  1
  H  H718  1  0.43883219  0.28741211  0.78922629  1
  H  H719  1  0.38710971  0.25633270  0.82499094  1
  H  H720  1  0.27344321  0.04805938  0.63347084  1
  C  C721  1  0.28124647  0.07690506  0.65034767  1
  C  C722  1  0.28759294  0.08337306  0.70876239  1
  C  C723  1  0.28495280  0.10799880  0.61237873  1
  C  C724  1  0.30010760  0.12112757  0.72739888  1
  N  N725  1  0.28379029  0.05475055  0.75075920  1
  C  C726  1  0.29593828  0.14577430  0.63168205  1
  H  H727  1  0.27918572  0.10270583  0.56754336  1
  H  H728  1  0.30582899  0.12676942  0.77218340  1
  C  C729  1  0.30472824  0.15197964  0.68944695  1
  H  H730  1  0.30127647  0.06251474  0.78915323  1
  C  C731  1  0.25816296  0.01792758  0.74837204  1
  O  O732  1  0.29832709  0.17626857  0.59442962  1
  H  H733  1  0.31556054  0.18070957  0.70547553  1
  C  C734  1  0.26264004  -0.00735840  0.80118170  1
  O  O735  1  0.23212009  0.00512557  0.70651206  1
  H  H736  1  0.29819500  0.20092230  0.61473337  1
  H  H737  1  0.29912091  0.00275527  0.82866406  1
  H  H738  1  0.27216141  -0.03741319  0.78922997  1
  H  H739  1  0.22044459  -0.00633108  0.82499857  1
  H  H740  1  0.39321681  0.45194194  -0.13347093  1
  C  C741  1  0.38541658  0.42309581  -0.15034772  1
  C  C742  1  0.37907178  0.41662702  -0.20876168  1
  C  C743  1  0.38171138  0.39200177  -0.11237849  1
  C  C744  1  0.36655905  0.37887246  -0.22739932  1
  N  N745  1  0.38287660  0.44524895  -0.25076017  1
  C  C746  1  0.37072692  0.35422633  -0.13168195  1
  H  H747  1  0.38747693  0.39729545  -0.06754374  1
  H  H748  1  0.36083820  0.37323002  -0.27218354  1
  C  C749  1  0.36193819  0.34802046  -0.18944628  1
  H  H750  1  0.36539303  0.43748448  -0.28915337  1
  C  C751  1  0.40850093  0.48207309  -0.24837182  1
  O  O752  1  0.36833819  0.32373209  -0.09442864  1
  H  H753  1  0.35110619  0.31929056  -0.20547476  1
  C  C754  1  0.40402721  0.50735801  -0.30118348  1
  O  O755  1  0.43453941  0.49487579  -0.20651148  1
  H  H756  1  0.36846469  0.29907884  -0.11473219  1
  H  H757  1  0.36754921  0.49724310  -0.32866781  1
  H  H758  1  0.39450336  0.53741272  -0.28923332  1
  H  H759  1  0.44622495  0.50633111  -0.32499712  1
  H  H760  1  0.44011969  0.45194263  -0.38347167  1
  C  C761  1  0.44791954  0.42309626  -0.40034741  1
  C  C762  1  0.45426124  0.41662719  -0.45876259  1
  C  C763  1  0.45162578  0.39200479  -0.36237546  1
  C  C764  1  0.46677610  0.37887159  -0.47739544  1
  N  N765  1  0.45046083  0.44524920  -0.50075930  1
  C  C766  1  0.46260713  0.35422745  -0.38167712  1
  H  H767  1  0.44585984  0.39729864  -0.31753979  1
  H  H768  1  0.47249711  0.37322787  -0.52217920  1
  C  C769  1  0.47139736  0.34802070  -0.43944179  1
  H  H770  1  0.46794379  0.43748201  -0.53915499  1
  C  C771  1  0.42483489  0.48207212  -0.49837299  1
  O  O772  1  0.46499529  0.32373452  -0.34442351  1
  H  H773  1  0.48222826  0.31928921  -0.45546800  1
  C  C774  1  0.42931337  0.50735724  -0.55118311  1
  O  O775  1  0.39879310  0.49487600  -0.45651119  1
  H  H776  1  0.46486818  0.29907967  -0.36472577  1
  H  H777  1  0.46579169  0.49724119  -0.57866789  1
  H  H778  1  0.43883743  0.53741172  -0.53923249  1
  H  H779  1  0.38711727  0.50633198  -0.57499826  1
  H  H780  1  0.55989259  0.04805559  0.38347192  1
  C  C781  1  0.55208838  0.07690159  0.40034622  1
  C  C782  1  0.54574141  0.08337194  0.45876117  1
  C  C783  1  0.54838246  0.10799315  0.36237344  1
  C  C784  1  0.53322204  0.12112723  0.47739200  1
  N  N785  1  0.54954139  0.05474952  0.50075859  1
  C  C786  1  0.53739837  0.14577024  0.38167260  1
  H  H787  1  0.55415174  0.10269877  0.31753825  1
  H  H788  1  0.52749705  0.12677147  0.52217562  1
  C  C789  1  0.52860271  0.15197771  0.43943659  1
  H  H790  1  0.53205537  0.06251617  0.53915282  1
  C  C791  1  0.57516953  0.01792757  0.49837365  1
  O  O792  1  0.53501246  0.17626303  0.34441750  1
  H  H793  1  0.51776928  0.18070908  0.45546143  1
  C  C794  1  0.57069264  -0.00735803  0.55118397  1
  O  O795  1  0.60121170  0.00512404  0.45651230  1
  H  H796  1  0.53514495  0.20091769  0.36471898  1
  H  H797  1  0.53421193  0.00275592  0.57866739  1
  H  H798  1  0.56117326  -0.03741282  0.53923143  1
  H  H799  1  0.61288818  -0.00633032  0.57500008  1
  H  H800  1  0.39321328  0.20194635  0.88347120  1
  C  C801  1  0.38541378  0.17309946  0.90034621  1
  C  C802  1  0.37906721  0.16662822  0.95875664  1
  C  C803  1  0.38171066  0.14200544  0.86237545  1
  C  C804  1  0.36655798  0.12887431  0.97739651  1
  N  N805  1  0.38287367  0.19525006  1.00076123  1
  C  C806  1  0.37072689  0.10423045  0.88167837  1
  H  H807  1  0.38747405  0.14730131  0.81754140  1
  H  H808  1  0.36083758  0.12323044  1.02217932  1
  C  C809  1  0.36193919  0.09802247  0.93944080  1
  H  H810  1  0.36538717  0.18748673  1.03915005  1
  C  C811  1  0.40849681  0.23207404  0.99837139  1
  O  O812  1  0.36834163  0.07373681  0.84442271  1
  H  H813  1  0.35110879  0.06929250  0.95546816  1
  C  C814  1  0.40402382  0.25735854  1.05118671  1
  O  O815  1  0.43453450  0.24487787  0.95651615  1
  H  H816  1  0.36847458  0.04908281  0.86472399  1
  H  H817  1  0.36754695  0.24724324  1.07866887  1
  H  H818  1  0.39449745  0.28741308  1.03923750  1
  H  H819  1  0.44622164  0.25633189  1.07499968  1
  H  H820  1  0.27344968  -0.20194154  0.11653046  1
  C  C821  1  0.28124975  -0.17309555  0.09965368  1
  C  C822  1  0.28759224  -0.16662684  0.04123906  1
  C  C823  1  0.28495661  -0.14200214  0.13762326  1
  C  C824  1  0.30010403  -0.12887206  0.02260214  1
  N  N825  1  0.28378755  -0.19524891  -0.00075843  1
  C  C826  1  0.29593995  -0.10422647  0.11831985  1
  H  H827  1  0.27919252  -0.14729579  0.18245860  1
  H  H828  1  0.30582294  -0.12322936  -0.02218227  1
  C  C829  1  0.30472658  -0.09802024  0.06055495  1
  H  H830  1  0.30126871  -0.18748333  -0.03915317  1
  C  C831  1  0.25816430  -0.23207331  0.00163058  1
  O  O832  1  0.29832994  -0.07373252  0.15557291  1
  H  H833  1  0.31555791  -0.06929013  0.04452660  1
  C  C834  1  0.26263915  -0.25735830  -0.05118078  1
  O  O835  1  0.23212683  -0.24487681  0.04349182  1
  H  H836  1  0.29820006  -0.04907883  0.13526965  1
  H  H837  1  0.29911626  -0.24724306  -0.07866599  1
  H  H838  1  0.27216466  -0.28741282  -0.03923053  1
  H  H839  1  0.22044128  -0.25633248  -0.07499388  1
  H  H840  1  0.55988834  -0.20194445  0.36652638  1
  C  C841  1  0.55208462  -0.17309827  0.34965208  1
  C  C842  1  0.54573512  -0.16662888  0.29123723  1
  C  C843  1  0.54838133  -0.14200634  0.38762390  1
  C  C844  1  0.53321957  -0.12887335  0.27260534  1
  N  N845  1  0.54953322  -0.19525155  0.24924062  1
  C  C846  1  0.53739740  -0.10422950  0.36832368  1
  H  H847  1  0.55414996  -0.14730081  0.43245909  1
  H  H848  1  0.52749420  -0.12322967  0.22782175  1
  C  C849  1  0.52860304  -0.09802241  0.31055964  1
  H  H850  1  0.53204446  -0.18748626  0.21084656  1
  C  C851  1  0.57515953  -0.23207409  0.25162488  1
  O  O852  1  0.53501327  -0.07373660  0.40557843  1
  H  H853  1  0.51777089  -0.06929125  0.29453417  1
  C  C854  1  0.57067721  -0.25736212  0.19881796  1
  O  O855  1  0.60120735  -0.24487622  0.29348428  1
  H  H856  1  0.53515060  -0.04908180  0.38527723  1
  H  H857  1  0.53419188  -0.24725048  0.17133860  1
  H  H858  1  0.56116036  -0.28741689  0.21077285  1
  H  H859  1  0.61286910  -0.25633435  0.17499590  1
  H  H860  1  0.44012044  0.20194004  1.13346626  1
  C  C861  1  0.44792104  0.17309369  1.15034329  1
  C  C862  1  0.45426866  0.16662464  1.20875493  1
  C  C863  1  0.45162476  0.14199865  1.11237465  1
  C  C864  1  0.46677948  0.12887072  1.22739672  1
  N  N865  1  0.45046094  0.19524662  1.25075548  1
  C  C866  1  0.46261208  0.10422450  1.13167959  1
  H  H867  1  0.44585898  0.14729279  1.06754156  1
  H  H868  1  0.47250050  0.12322897  1.27218013  1
  C  C869  1  0.47139956  0.09801823  1.18944272  1
  H  H870  1  0.46794454  0.18748439  1.28914703  1
  C  C871  1  0.42483739  0.23207116  1.24836544  1
  O  O872  1  0.46500104  0.07373007  1.09442570  1
  H  H873  1  0.48223149  0.06928918  1.20547261  1
  C  C874  1  0.42930794  0.25735632  1.30117752  1
  O  O875  1  0.39879960  0.24487358  1.20650677  1
  H  H876  1  0.46487785  0.04907719  1.11472894  1
  H  H877  1  0.46578449  0.24724183  1.32866211  1
  H  H878  1  0.43883404  0.28741088  1.28922761  1
  H  H879  1  0.38710934  0.25632965  1.32498990  1
  H  H880  1  0.27344533  0.04806143  1.13347182  1
  C  C881  1  0.28124830  0.07690742  1.15035005  1
  C  C882  1  0.28759377  0.08337530  1.20876170  1
  C  C883  1  0.28495613  0.10800185  1.11238081  1
  C  C884  1  0.30010881  0.12112909  1.22740308  1
  N  N885  1  0.28378489  0.05475401  1.25076295  1
  C  C886  1  0.29594479  0.14577619  1.13168676  1
  H  H887  1  0.27919182  0.10270855  1.06754681  1
  H  H888  1  0.30582982  0.12677055  1.27218659  1
  C  C889  1  0.30473184  0.15198111  1.18944999  1
  H  H890  1  0.30126981  0.06251691  1.28915420  1
  C  C891  1  0.25816078  0.01792965  1.24837341  1
  O  O892  1  0.29833610  0.17627070  1.09443368  1
  H  H893  1  0.31556554  0.18071044  1.20547988  1
  C  C894  1  0.26263517  -0.00735608  1.30118480  1
  O  O895  1  0.23212256  0.00512757  1.20651444  1
  H  H896  1  0.29821602  0.20092388  1.11473813  1
  H  H897  1  0.29911239  0.00275910  1.32866847  1
  H  H898  1  0.27216251  -0.03741037  1.28923418  1
  H  H899  1  0.22043755  -0.00633082  1.32499828  1
  H  H900  1  0.39321662  0.45194104  0.36652896  1
  C  C901  1  0.38541558  0.42309498  0.34965291  1
  C  C902  1  0.37907127  0.41662626  0.29123809  1
  C  C903  1  0.38170961  0.39200191  0.38762332  1
  C  C904  1  0.36655741  0.37887124  0.27260271  1
  N  N905  1  0.38287399  0.44524809  0.24924123  1
  C  C906  1  0.37072595  0.35422613  0.36832068  1
  H  H907  1  0.38747539  0.39729583  0.43245853  1
  H  H908  1  0.36083637  0.37322818  0.22781890  1
  C  C909  1  0.36193645  0.34801952  0.31055618  1
  H  H910  1  0.36538910  0.43748361  0.21084681  1
  C  C911  1  0.40850063  0.48207173  0.25162799  1
  O  O912  1  0.36833736  0.32373222  0.40557414  1
  H  H913  1  0.35110498  0.31928917  0.29452887  1
  C  C914  1  0.40402280  0.50735790  0.19881917  1
  O  O915  1  0.43454331  0.49487354  0.29348842  1
  H  H916  1  0.36846697  0.29907829  0.38527155  1
  H  H917  1  0.36754308  0.49724383  0.17133577  1
  H  H918  1  0.39449989  0.53741265  0.21077158  1
  H  H919  1  0.44621853  0.50633225  0.17500276  1
  H  H920  1  0.44011805  0.45194250  0.11652983  1
  C  C921  1  0.44791860  0.42309623  0.09965393  1
  C  C922  1  0.45426146  0.41662709  0.04123898  1
  C  C923  1  0.45162492  0.39200364  0.13762454  1
  C  C924  1  0.46677454  0.37887169  0.02260421  1
  N  N925  1  0.45045817  0.44524861  -0.00075806  1
  C  C926  1  0.46260810  0.35422734  0.11832239  1
  H  H927  1  0.44586016  0.39729777  0.18245990  1
  H  H928  1  0.47249458  0.37322853  -0.02217990  1
  C  C929  1  0.47139607  0.34802070  0.06055774  1
  H  H930  1  0.46794131  0.43748365  -0.03915305  1
  C  C931  1  0.42483320  0.48207271  0.00162924  1
  O  O932  1  0.46499760  0.32373403  0.15557610  1
  H  H933  1  0.48222713  0.31929000  0.04453051  1
  C  C934  1  0.42931098  0.50735860  -0.05118003  1
  O  O935  1  0.39879254  0.49487541  0.04349024  1
  H  H936  1  0.46486952  0.29907971  0.13527388  1
  H  H937  1  0.46579029  0.49724418  -0.07866348  1
  H  H938  1  0.43883402  0.53741321  -0.03922818  1
  H  H939  1  0.38711506  0.50633271  -0.07499621  1
  H  H940  1  0.55987447  0.04806034  0.88347514  1
  C  C941  1  0.55207800  0.07690402  0.90035540  1
  C  C942  1  0.54574522  0.08337728  0.95876583  1
  C  C943  1  0.54836945  0.10799552  0.86237454  1
  C  C944  1  0.53322457  0.12112936  0.97739792  1
  N  N945  1  0.54953816  0.05474623  1.00076921  1
  C  C946  1  0.53739477  0.14577260  0.88167817  1
  H  H947  1  0.55414007  0.10270158  0.81753872  1
  H  H948  1  0.52750371  0.12677678  1.02217790  1
  C  C949  1  0.52859820  0.15198224  0.93943969  1
  H  H950  1  0.53206263  0.06252388  1.03916237  1
  C  C951  1  0.57517152  0.01793195  0.99837169  1
  O  O952  1  0.53500591  0.17626797  0.84442367  1
  H  H953  1  0.51776891  0.18071434  0.95546554  1
  C  C954  1  0.57069124  -0.00735573  1.05118701  1
  O  O955  1  0.60121116  0.00512474  0.95650747  1
  H  H956  1  0.53512071  0.20092247  0.86472540  1
  H  H957  1  0.53421263  0.00276101  1.07867392  1
  H  H958  1  0.56117562  -0.03741014  1.03923427  1
  H  H959  1  0.61288743  -0.00632760  1.07499807  1
  H  H960  1  0.39321444  0.70193783  0.38347541  1
  C  C961  1  0.38541639  0.67309396  0.40035564  1
  C  C962  1  0.37908355  0.66662371  0.45876905  1
  C  C963  1  0.38170533  0.64200203  0.36237882  1
  C  C964  1  0.36656445  0.62887060  0.47740235  1
  N  N965  1  0.38287969  0.69525269  0.50076677  1
  C  C966  1  0.37072899  0.60422524  0.38168406  1
  H  H967  1  0.38747217  0.64729477  0.31754262  1
  H  H968  1  0.36084583  0.62322553  0.52218390  1
  C  C969  1  0.36193771  0.59801808  0.43944730  1
  H  H970  1  0.36540044  0.68747992  0.53916266  1
  C  C971  1  0.40851380  0.73206853  0.49837254  1
  O  O972  1  0.36833596  0.57373002  0.34443121  1
  H  H973  1  0.35110850  0.56928621  0.45547486  1
  C  C974  1  0.40403301  0.75735869  0.55118124  1
  O  O975  1  0.43455919  0.74487186  0.45650746  1
  H  H976  1  0.36844910  0.54907577  0.36473440  1
  H  H977  1  0.36755319  0.74724361  0.57866805  1
  H  H978  1  0.39451468  0.78741222  0.53922527  1
  H  H979  1  0.44622823  0.75633307  0.57499599  1
  H  H980  1  0.27344622  0.29805646  -0.38347170  1
  C  C981  1  0.28124741  0.32690314  -0.40034678  1
  C  C982  1  0.28759347  0.33337342  -0.45875890  1
  C  C983  1  0.28495307  0.35799666  -0.36237640  1
  C  C984  1  0.30010553  0.37112795  -0.47739715  1
  N  N985  1  0.28378723  0.30475222  -0.50076036  1
  C  C986  1  0.29593890  0.39577196  -0.38167813  1
  H  H987  1  0.27918887  0.35270170  -0.31754227  1
  H  H988  1  0.30582603  0.37677133  -0.52218067  1
  C  C989  1  0.30472693  0.40197940  -0.43944195  1
  H  H990  1  0.30127306  0.31251513  -0.53915100  1
  C  C991  1  0.25816194  0.26792802  -0.49837193  1
  O  O992  1  0.29832709  0.42626534  -0.34442316  1
  H  H993  1  0.31555944  0.43070905  -0.45546941  1
  C  C994  1  0.26263732  0.24264253  -0.55118422  1
  O  O995  1  0.23212240  0.25512575  -0.45651498  1
  H  H996  1  0.29819552  0.45091917  -0.36472499  1
  H  H997  1  0.29911290  0.25275882  -0.57866870  1
  H  H998  1  0.27216646  0.21258861  -0.53923295  1
  H  H999  1  0.22043873  0.24366670  -0.57499664  1
  H  H1000  1  0.55988114  0.29805680  -0.13347222  1
  C  C1001  1  0.55208230  0.32690300  -0.15034800  1
  C  C1002  1  0.54574044  0.33337231  -0.20876344  1
  C  C1003  1  0.54837595  0.35799541  -0.11237727  1
  C  C1004  1  0.53322817  0.37112747  -0.22739722  1
  N  N1005  1  0.54954203  0.30475014  -0.25075992  1
  C  C1006  1  0.53739402  0.39577192  -0.13167950  1
  H  H1007  1  0.55414072  0.35270135  -0.06754166  1
  H  H1008  1  0.52750860  0.37677119  -0.27218129  1
  C  C1009  1  0.52860588  0.40197874  -0.18944421  1
  H  H1010  1  0.53205833  0.31251638  -0.28915523  1
  C  C1011  1  0.57516733  0.26792691  -0.24837341  1
  O  O1012  1  0.53500413  0.42626527  -0.09442615  1
  H  H1013  1  0.51777460  0.43070940  -0.20547108  1
  C  C1014  1  0.57069162  0.24264190  -0.30118416  1
  O  O1015  1  0.60120847  0.25512332  -0.20651202  1
  H  H1016  1  0.53512706  0.45091980  -0.11472848  1
  H  H1017  1  0.53421575  0.25275839  -0.32867074  1
  H  H1018  1  0.56116503  0.21258758  -0.28923466  1
  H  H1019  1  0.61288963  0.24366675  -0.32499679  1
  H  H1020  1  0.44012571  0.70194019  0.63347084  1
  C  C1021  1  0.44792414  0.67309549  0.65034999  1
  C  C1022  1  0.45425802  0.66662670  0.70876598  1
  C  C1023  1  0.45163540  0.64200370  0.61237671  1
  C  C1024  1  0.46677647  0.62887311  0.72739842  1
  N  N1025  1  0.45045731  0.69525255  0.75076137  1
  C  C1026  1  0.46261310  0.60422684  0.63168129  1
  H  H1027  1  0.44587034  0.64729630  0.56753932  1
  H  H1028  1  0.47249534  0.62322914  0.77218178  1
  C  C1029  1  0.47140284  0.59802079  0.68944635  1
  H  H1030  1  0.46793728  0.68748179  0.78915944  1
  C  C1031  1  0.42482603  0.73207082  0.74837032  1
  O  O1032  1  0.46500577  0.57373200  0.59443038  1
  H  H1033  1  0.48223251  0.56928930  0.70547356  1
  C  C1034  1  0.42930082  0.75735806  0.80118059  1
  O  O1035  1  0.39878380  0.74487484  0.70650428  1
  H  H1036  1  0.46488806  0.54907775  0.61473368  1
  H  H1037  1  0.46578169  0.74724451  0.82866639  1
  H  H1038  1  0.43881666  0.78741285  0.78922896  1
  H  H1039  1  0.38710544  0.75632898  0.82499523  1
  H  H1040  1  0.27345573  0.54805759  0.63346731  1
  C  C1041  1  0.28125349  0.57690389  0.65034418  1
  C  C1042  1  0.28759680  0.58337258  0.70875759  1
  C  C1043  1  0.28495804  0.60799814  0.61237494  1
  C  C1044  1  0.30010588  0.62112742  0.72739676  1
  N  N1045  1  0.28379295  0.55475047  0.75075617  1
  C  C1046  1  0.29594100  0.64577333  0.63167973  1
  H  H1047  1  0.27919456  0.60270408  0.56754063  1
  H  H1048  1  0.30582402  0.62676972  0.77218042  1
  C  C1049  1  0.30472650  0.65197945  0.68944382  1
  H  H1050  1  0.30127637  0.56251415  0.78914949  1
  C  C1051  1  0.25816959  0.51792606  0.74836719  1
  O  O1052  1  0.29833075  0.67626762  0.59442659  1
  H  H1053  1  0.31555627  0.68070949  0.70547300  1
  C  C1054  1  0.26264168  0.49264138  0.80117928  1
  O  O1055  1  0.23213229  0.50512273  0.70650726  1
  H  H1056  1  0.29820874  0.70092110  0.61472959  1
  H  H1057  1  0.29911787  0.50275625  0.82866452  1
  H  H1058  1  0.27216762  0.46258667  0.78922997  1
  H  H1059  1  0.22044352  0.49366731  0.82499185  1
  H  H1060  1  0.39322151  0.95194612  -0.13347333  1
  C  C1061  1  0.38542012  0.92310002  -0.15034686  1
  C  C1062  1  0.37907638  0.91662873  -0.20876268  1
  C  C1063  1  0.38171383  0.89200955  -0.11237300  1
  C  C1064  1  0.36655929  0.87887340  -0.22739091  1
  N  N1065  1  0.38287367  0.94525209  -0.25075873  1
  C  C1066  1  0.37073178  0.85423166  -0.13167118  1
  H  H1067  1  0.38748249  0.89730417  -0.06753693  1
  H  H1068  1  0.36083704  0.87322798  -0.27217465  1
  C  C1069  1  0.36193741  0.84802317  -0.18943582  1
  H  H1070  1  0.36538902  0.93748313  -0.28915473  1
  C  C1071  1  0.40850203  0.98207299  -0.24837460  1
  O  O1072  1  0.36834426  0.82373932  -0.09441688  1
  H  H1073  1  0.35110439  0.81929168  -0.20545956  1
  C  C1074  1  0.40402374  1.00735795  -0.30118611  1
  O  O1075  1  0.43454562  0.99487806  -0.20651351  1
  H  H1076  1  0.36847020  0.79908395  -0.11471737  1
  H  H1077  1  0.36754857  0.99723974  -0.32867352  1
  H  H1078  1  0.39449710  1.03741197  -0.28923650  1
  H  H1079  1  0.44622146  1.00633365  -0.32499805  1
  H  H1080  1  0.44011794  0.95194667  -0.38347139  1
  C  C1081  1  0.44791846  0.92310030  -0.40034776  1
  C  C1082  1  0.45426845  0.91662797  -0.45875340  1
  C  C1083  1  0.45162105  0.89200386  -0.36237665  1
  C  C1084  1  0.46677647  0.87887667  -0.47740023  1
  N  N1085  1  0.45045798  0.94525202  -0.50076404  1
  C  C1086  1  0.46260853  0.85423096  -0.38168330  1
  H  H1087  1  0.44585747  0.89729966  -0.31754540  1
  H  H1088  1  0.47249845  0.87323360  -0.52218178  1
  C  C1089  1  0.47139564  0.84802303  -0.43944381  1
  H  H1090  1  0.46794320  0.93748876  -0.53914802  1
  C  C1091  1  0.42483562  0.98207452  -0.49836961  1
  O  O1092  1  0.46499384  0.82373605  -0.34442717  1
  H  H1093  1  0.48222842  0.81929543  -0.45547350  1
  C  C1094  1  0.42930630  1.00736052  -0.55118710  1
  O  O1095  1  0.39879797  0.99487813  -0.45651801  1
  H  H1096  1  0.46486318  0.79908347  -0.36472948  1
  H  H1097  1  0.46578126  0.99724516  -0.57866901  1
  H  H1098  1  0.43883582  1.03741454  -0.53923729  1
  H  H1099  1  0.38710713  1.00633476  -0.57499811  1
  H  H1100  1  0.55988501  0.54805401  0.38346788  1
  C  C1101  1  0.55208531  0.57690076  0.40034259  1
  C  C1102  1  0.54574280  0.58337070  0.45875713  1
  C  C1103  1  0.54837939  0.60799280  0.36237110  1
  C  C1104  1  0.53323231  0.62112665  0.47739165  1
  N  N1105  1  0.54954666  0.55475068  0.50075632  1
  C  C1106  1  0.53739600  0.64576938  0.38167245  1
  H  H1107  1  0.55414212  0.60269769  0.31753593  1
  H  H1108  1  0.52751419  0.62677076  0.52217516  1
  C  C1109  1  0.52860986  0.65197730  0.43943680  1
  H  H1110  1  0.53206429  0.56251592  0.53915080  1
  C  C1111  1  0.57516883  0.51792502  0.49836966  1
  O  O1112  1  0.53500746  0.67626192  0.34441780  1
  H  H1113  1  0.51777917  0.68070796  0.45546270  1
  C  C1114  1  0.57069457  0.49264225  0.55118195  1
  O  O1115  1  0.60120450  0.50511992  0.45650821  1
  H  H1116  1  0.53514366  0.70091694  0.36471804  1
  H  H1117  1  0.53421693  0.50275737  0.57866648  1
  H  H1118  1  0.56117057  0.46258709  0.53923451  1
  H  H1119  1  0.61289173  0.49366936  0.57499588  1
  H  H1120  1  0.39321296  0.70193908  0.88347100  1
  C  C1121  1  0.38541265  0.67309451  0.90034914  1
  C  C1122  1  0.37907337  0.66662697  0.95876694  1
  C  C1123  1  0.38170450  0.64200155  0.86237949  1
  C  C1124  1  0.36655688  0.62887290  0.97739974  1
  N  N1125  1  0.38287367  0.69525172  1.00075981  1
  C  C1126  1  0.37072374  0.60422511  0.88168271  1
  H  H1127  1  0.38747139  0.64729366  0.81754195  1
  H  H1128  1  0.36083653  0.62322983  1.02218416  1
  C  C1129  1  0.36193309  0.59801975  0.93944938  1
  H  H1130  1  0.36539252  0.68748304  1.03915823  1
  C  C1131  1  0.40850200  0.73207283  0.99837119  1
  O  O1132  1  0.36833230  0.57373037  0.84443276  1
  H  H1133  1  0.35110310  0.56928916  0.95547705  1
  C  C1134  1  0.40402508  0.75735966  1.05117944  1
  O  O1135  1  0.43454361  0.74487561  0.95650545  1
  H  H1136  1  0.36845251  0.54907654  0.86473681  1
  H  H1137  1  0.36754429  0.74724625  1.07866483  1
  H  H1138  1  0.39450643  0.78741445  1.03922660  1
  H  H1139  1  0.44622070  0.75633217  1.07499534  1
  H  H1140  1  0.27344646  0.29805660  0.11652801  1
  C  C1141  1  0.28124873  0.32690321  0.09965318  1
  C  C1142  1  0.28759659  0.33337325  0.04124047  1
  C  C1143  1  0.28495355  0.35799642  0.13762401  1
  C  C1144  1  0.30011088  0.37112785  0.02260397  1
  N  N1145  1  0.28379196  0.30475267  -0.00076101  1
  C  C1146  1  0.29593987  0.39577199  0.11832210  1
  H  H1147  1  0.27918698  0.35270160  0.18245809  1
  H  H1148  1  0.30583380  0.37677105  -0.02217934  1
  C  C1149  1  0.30473063  0.40197909  0.06055867  1
  H  H1150  1  0.30127655  0.31251746  -0.03915256  1
  C  C1151  1  0.25816946  0.26792762  0.00162582  1
  O  O1152  1  0.29832653  0.42626530  0.15557678  1
  H  H1153  1  0.31556390  0.43070912  0.04453205  1
  C  C1154  1  0.26264404  0.24264452  -0.05118818  1
  O  O1155  1  0.23213167  0.25512325  0.04348396  1
  H  H1156  1  0.29819715  0.45091942  0.13527493  1
  H  H1157  1  0.29912185  0.25276030  -0.07867096  1
  H  H1158  1  0.27216896  0.21258951  -0.03924007  1
  H  H1159  1  0.22044678  0.24367139  -0.07500203  1
  H  H1160  1  0.55988700  0.29805608  0.36652964  1
  C  C1161  1  0.55208472  0.32690210  0.34965418  1
  C  C1162  1  0.54574060  0.33337158  0.29123867  1
  C  C1163  1  0.54837848  0.35799399  0.38762574  1
  C  C1164  1  0.53322371  0.37112698  0.27260665  1
  N  N1165  1  0.54954257  0.30474962  0.24924211  1
  C  C1166  1  0.53739531  0.39577095  0.36832517  1
  H  H1167  1  0.55414604  0.35270007  0.43246141  1
  H  H1168  1  0.52750135  0.37677056  0.22782246  1
  C  C1169  1  0.52860298  0.40197777  0.31056050  1
  H  H1170  1  0.53205886  0.31251624  0.21084642  1
  C  C1171  1  0.57517034  0.26792720  0.25162786  1
  O  O1172  1  0.53500800  0.42626416  0.40557863  1
  H  H1173  1  0.51777089  0.43070888  0.29453460  1
  C  C1174  1  0.57069619  0.24264270  0.19881643  1
  O  O1175  1  0.60121014  0.25512347  0.29348991  1
  H  H1176  1  0.53513689  0.45091869  0.38527657  1
  H  H1177  1  0.53421822  0.25275764  0.17133082  1
  H  H1178  1  0.56117422  0.21258783  0.21076669  1
  H  H1179  1  0.61289361  0.24367010  0.17500326  1
  H  H1180  1  0.44011152  0.70193880  1.13347464  1
  C  C1181  1  0.44791347  0.67309431  1.15035238  1
  C  C1182  1  0.45424996  0.66662440  1.20876776  1
  C  C1183  1  0.45162589  0.64200307  1.11237707  1
  C  C1184  1  0.46677142  0.62887005  1.22739813  1
  N  N1185  1  0.45044965  0.69524908  1.25076447  1
  C  C1186  1  0.46260745  0.60422629  1.13167969  1
  H  H1187  1  0.44585828  0.64729665  1.06754075  1
  H  H1188  1  0.47249125  0.62322525  1.27218134  1
  C  C1189  1  0.47139919  0.59801905  1.18944393  1
  H  H1190  1  0.46792852  0.68747721  1.28916228  1
  C  C1191  1  0.42481845  0.73206783  1.24837543  1
  O  O1192  1  0.46500061  0.57373225  1.09442681  1
  H  H1193  1  0.48223149  0.56928721  1.20546978  1
  C  C1194  1  0.42929937  0.75735473  1.30118490  1
  O  O1195  1  0.39877577  0.74487276  1.20651000  1
  H  H1196  1  0.46488092  0.54907754  1.11472945  1
  H  H1197  1  0.46577707  0.74723785  1.32867170  1
  H  H1198  1  0.43882246  0.78740882  1.28923276  1
  H  H1199  1  0.38710329  0.75633037  1.32499888  1
  H  H1200  1  0.27344275  0.54805519  1.13347091  1
  C  C1201  1  0.28124559  0.57690139  1.15034561  1
  C  C1202  1  0.28759140  0.58337133  1.20876069  1
  C  C1203  1  0.28495183  0.60799363  1.11237475  1
  C  C1204  1  0.30010669  0.62112617  1.22739379  1
  N  N1205  1  0.28378796  0.55474967  1.25075861  1
  C  C1206  1  0.29593662  0.64577021  1.13167545  1
  H  H1207  1  0.27918524  0.60269908  1.06753933  1
  H  H1208  1  0.30582894  0.62676944  1.27217831  1
  C  C1209  1  0.30472706  0.65197675  1.18944040  1
  H  H1210  1  0.30127193  0.56251567  1.28915329  1
  C  C1211  1  0.25816282  0.51792675  1.24837240  1
  O  O1212  1  0.29832486  0.67626283  1.09442186  1
  H  H1213  1  0.31555960  0.68070769  1.20546655  1
  C  C1214  1  0.26263867  0.49264201  1.30118419  1
  O  O1215  1  0.23212224  0.50512238  1.20651212  1
  H  H1216  1  0.29819471  0.70091770  1.11472390  1
  H  H1217  1  0.29911569  0.50275820  1.32866867  1
  H  H1218  1  0.27216466  0.46258774  1.28923408  1
  H  H1219  1  0.22044149  0.49366759  1.32499787  1
  H  H1220  1  0.39321922  0.95194813  0.36652641  1
  C  C1221  1  0.38541956  0.92310093  0.34965291  1
  C  C1222  1  0.37907114  0.91663116  0.29123885  1
  C  C1223  1  0.38171848  0.89200830  0.38762355  1
  C  C1224  1  0.36656064  0.87887542  0.27260476  1
  N  N1225  1  0.38286848  0.94525306  0.24924113  1
  C  C1226  1  0.37073646  0.85423186  0.36832305  1
  H  H1227  1  0.38748534  0.89730327  0.43245818  1
  H  H1228  1  0.36083774  0.87323152  0.22782104  1
  C  C1229  1  0.36194475  0.84802422  0.31055906  1
  H  H1230  1  0.36537757  0.93748980  0.21084929  1
  C  C1231  1  0.40849544  0.98207674  0.25162488  1
  O  O1232  1  0.36835222  0.82373869  0.40557828  1
  H  H1233  1  0.35111344  0.81929355  0.29453298  1
  C  C1234  1  0.40401748  1.00736218  0.19881492  1
  O  O1235  1  0.43454159  0.99487875  0.29348216  1
  H  H1236  1  0.36848748  0.79908444  0.38527758  1
  H  H1237  1  0.36753854  0.99724780  0.17133161  1
  H  H1238  1  0.39449304  1.03741676  0.21076656  1
  H  H1239  1  0.44621326  1.00633706  0.17499859  1
  H  H1240  1  0.44011824  0.95194695  0.11653104  1
  C  C1241  1  0.44791704  0.92310141  0.09965404  1
  C  C1242  1  0.45427049  0.91662630  0.04125277  1
  C  C1243  1  0.45161751  0.89200191  0.13762658  1
  C  C1244  1  0.46677255  0.87887702  0.02260057  1
  N  N1245  1  0.45046153  0.94525223  -0.00076461  1
  C  C1246  1  0.46260471  0.85423172  0.11831745  1
  H  H1247  1  0.44585548  0.89730000  0.18245595  1
  H  H1248  1  0.47249437  0.87323298  -0.02217904  1
  C  C1249  1  0.47138962  0.84802165  0.06055928  1
  H  H1250  1  0.46794642  0.93748744  -0.03914438  1
  C  C1251  1  0.42484521  0.98207452  0.00163264  1
  O  O1252  1  0.46498874  0.82373529  0.15557578  1
  H  H1253  1  0.48222160  0.81929487  0.04452853  1
  C  C1254  1  0.42931361  1.00735927  -0.05118909  1
  O  O1255  1  0.39880831  0.99488111  0.04348158  1
  H  H1256  1  0.46485463  0.79908361  0.13527393  1
  H  H1257  1  0.46579266  0.99724523  -0.07866603  1
  H  H1258  1  0.43883810  1.03741398  -0.03924245  1
  H  H1259  1  0.38711657  1.00632879  -0.07500312  1
  H  H1260  1  0.55988732  0.54806096  0.88347070  1
  C  C1261  1  0.55208499  0.57690636  0.90034783  1
  C  C1262  1  0.54574227  0.58337390  0.95876401  1
  C  C1263  1  0.54837681  0.60799933  0.86237888  1
  C  C1264  1  0.53322612  0.62112846  0.97739893  1
  N  N1265  1  0.54954569  0.55475141  1.00075921  1
  C  C1266  1  0.53739149  0.64577507  0.88168210  1
  H  H1267  1  0.55414373  0.60270624  0.81754266  1
  H  H1268  1  0.52750645  0.62677076  1.02218346  1
  C  C1269  1  0.52860207  0.65198029  0.93944766  1
  H  H1270  1  0.53206332  0.56251713  1.03915601  1
  C  C1271  1  0.57517200  0.51792842  0.99837088  1
  O  O1272  1  0.53499940  0.67626866  0.84443064  1
  H  H1273  1  0.51776928  0.68071039  0.95547543  1
  C  C1274  1  0.57069543  0.49264243  1.05118085  1
  O  O1275  1  0.60121191  0.50512492  0.95650868  1
  H  H1276  1  0.53512141  0.70092340  0.86473358  1
  H  H1277  1  0.53421881  0.50275858  1.07866685  1
  H  H1278  1  0.56116885  0.46258834  1.03922983  1
  H  H1279  1  0.61289264  0.49366668  1.07499413  1
  H  H1280  1  0.72656006  0.20194220  0.38347404  1
  C  C1281  1  0.71875569  0.17309623  0.40035016  1
  C  C1282  1  0.71240679  0.16662844  0.45876430  1
  C  C1283  1  0.71505058  0.14200257  0.36238074  1
  C  C1284  1  0.69988989  0.12887384  0.47740099  1
  N  N1285  1  0.71620940  0.19525023  0.50076202  1
  C  C1286  1  0.70406429  0.10422689  0.38168373  1
  H  H1287  1  0.72081825  0.14729560  0.31754585  1
  H  H1288  1  0.69416544  0.12323195  0.52218486  1
  C  C1289  1  0.69527116  0.09802180  0.43944801  1
  H  H1290  1  0.69872156  0.18748691  0.53915443  1
  C  C1291  1  0.74183717  0.23207355  0.49837617  1
  O  O1292  1  0.70167795  0.07373283  0.34443022  1
  H  H1293  1  0.68443773  0.06929185  0.45547633  1
  C  C1294  1  0.73736167  0.25735917  0.55118654  1
  O  O1295  1  0.76787971  0.24487497  0.45651654  1
  H  H1296  1  0.70181259  0.04907915  0.36473362  1
  H  H1297  1  0.70088387  0.24724412  0.57867082  1
  H  H1298  1  0.72783675  0.28741357  0.53923456  1
  H  H1299  1  0.77955920  0.25633369  0.57500058  1
  H  H1300  1  0.60678926  -0.20194598  -0.38346705  1
  C  C1301  1  0.61458831  -0.17309965  -0.40034307  1
  C  C1302  1  0.62093635  -0.16662938  -0.45875441  1
  C  C1303  1  0.61829079  -0.14200485  -0.36237301  1
  C  C1304  1  0.63344266  -0.12887525  -0.47739468  1
  N  N1305  1  0.61713148  -0.19525077  -0.50075758  1
  C  C1306  1  0.62927461  -0.10423020  -0.38167745  1
  H  H1307  1  0.61252769  -0.14730027  -0.31753944  1
  H  H1308  1  0.63916389  -0.12323218  -0.52217774  1
  C  C1309  1  0.63806026  -0.09802258  -0.43944048  1
  H  H1310  1  0.63460987  -0.18748448  -0.53914969  1
  C  C1311  1  0.59151081  -0.23207617  -0.49836814  1
  O  O1312  1  0.63166035  -0.07373591  -0.34442278  1
  H  H1313  1  0.64889095  -0.06929310  -0.45546906  1
  C  C1314  1  0.59597975  -0.25735755  -0.55118553  1
  O  O1315  1  0.56547702  -0.24488227  -0.45651043  1
  H  H1316  1  0.63152770  -0.04908260  -0.36472516  1
  H  H1317  1  0.63245922  -0.24724428  -0.57866729  1
  H  H1318  1  0.60550010  -0.28741395  -0.53924158  1
  H  H1319  1  0.55378254  -0.25632487  -0.57499886  1
  H  H1320  1  0.89321442  -0.20194298  -0.13347288  1
  C  C1321  1  0.88541446  -0.17309661  -0.15034824  1
  C  C1322  1  0.87906948  -0.16662700  -0.20876178  1
  C  C1323  1  0.88170886  -0.14200374  -0.11237775  1
  C  C1324  1  0.86655742  -0.12887227  -0.22739760  1
  N  N1325  1  0.88287188  -0.19524933  -0.25076048  1
  C  C1326  1  0.87072418  -0.10422813  -0.13168022  1
  H  H1327  1  0.88747433  -0.14729862  -0.06754309  1
  H  H1328  1  0.86083705  -0.12322890  -0.27218109  1
  C  C1329  1  0.86193632  -0.09802103  -0.18944426  1
  H  H1330  1  0.86538570  -0.18748519  -0.28915382  1
  C  C1331  1  0.90849798  -0.23207239  -0.24837253  1
  O  O1332  1  0.86833430  -0.07373509  -0.09442600  1
  H  H1333  1  0.85110423  -0.06929082  -0.20547097  1
  C  C1334  1  0.90402297  -0.25735847  -0.30118298  1
  O  O1335  1  0.93454128  -0.24487523  -0.20651392  1
  H  H1336  1  0.86845738  -0.04908041  -0.11472661  1
  H  H1337  1  0.86754479  -0.24724421  -0.32866705  1
  H  H1338  1  0.89449816  -0.28741296  -0.28923256  1
  H  H1339  1  0.94621915  -0.25633281  -0.32499813  1
  H  H1340  1  0.77344969  0.20194076  0.63346892  1
  C  C1341  1  0.78125046  0.17309527  0.65034646  1
  C  C1342  1  0.78759276  0.16662761  0.70876259  1
  C  C1343  1  0.78495713  0.14200168  0.61237762  1
  C  C1344  1  0.80010664  0.12887289  0.72739847  1
  N  N1345  1  0.78379095  0.19525070  0.75075733  1
  C  C1346  1  0.79593982  0.10422574  0.63168154  1
  H  H1347  1  0.77919140  0.14729423  0.56754149  1
  H  H1348  1  0.80582588  0.12323087  0.77218299  1
  C  C1349  1  0.80472849  0.09802070  0.68944685  1
  H  H1350  1  0.80127455  0.18748503  0.78915343  1
  C  C1351  1  0.75816415  0.23207317  0.74837007  1
  O  O1352  1  0.79833084  0.07373125  0.59442998  1
  H  H1353  1  0.81555913  0.06929037  0.70547598  1
  C  C1354  1  0.76263841  0.25735875  0.80118014  1
  O  O1355  1  0.73212348  0.24487582  0.70650741  1
  H  H1356  1  0.79820614  0.04907764  0.61473444  1
  H  H1357  1  0.79911686  0.24724421  0.82866558  1
  H  H1358  1  0.77216107  0.28741334  0.78922901  1
  H  H1359  1  0.72044125  0.25633190  0.82499412  1
  H  H1360  1  0.60677453  0.04806338  0.63346771  1
  C  C1361  1  0.61457842  0.07690833  0.65034686  1
  C  C1362  1  0.62092447  0.08337433  0.70876234  1
  C  C1363  1  0.61828514  0.10800266  0.61237933  1
  C  C1364  1  0.63344164  0.12112817  0.72740034  1
  N  N1365  1  0.61712164  0.05475104  0.75075749  1
  C  C1366  1  0.62927208  0.14577777  0.63168472  1
  H  H1367  1  0.61251624  0.10271143  0.56754336  1
  H  H1368  1  0.63916389  0.12676865  0.77218486  1
  C  C1369  1  0.63806354  0.15198108  0.68944988  1
  H  H1370  1  0.63460621  0.06251588  0.78915262  1
  C  C1371  1  0.59149479  0.01792833  0.74836886  1
  O  O1372  1  0.63166304  0.17627292  0.59443442  1
  H  H1373  1  0.64889654  0.18071079  0.70548022  1
  C  C1374  1  0.59596921  -0.00735730  0.80117913  1
  O  O1375  1  0.56545472  0.00512609  0.70650645  1
  H  H1376  1  0.63154033  0.20092613  0.61473989  1
  H  H1377  1  0.63244868  0.00275660  0.82866341  1
  H  H1378  1  0.60549053  -0.03741212  0.78922800  1
  H  H1379  1  0.55377254  -0.00632970  0.82499377  1
  H  H1380  1  0.72654576  0.45194729  -0.13347209  1
  C  C1381  1  0.71874725  0.42310005  -0.15034707  1
  C  C1382  1  0.71239915  0.41662810  -0.20875491  1
  C  C1383  1  0.71504477  0.39200534  -0.11237536  1
  C  C1384  1  0.69989263  0.37887458  -0.22739778  1
  N  N1385  1  0.71620510  0.44525010  -0.25076267  1
  C  C1386  1  0.70405999  0.35423088  -0.13167969  1
  H  H1387  1  0.72080739  0.39730159  -0.06754331  1
  H  H1388  1  0.69417232  0.37323103  -0.27217965  1
  C  C1389  1  0.69527422  0.34802264  -0.18944114  1
  H  H1390  1  0.69871817  0.43748719  -0.28914890  1
  C  C1391  1  0.74182905  0.48207368  -0.24837208  1
  O  O1392  1  0.70167430  0.32373729  -0.09442303  1
  H  H1393  1  0.68444310  0.31929334  -0.20546939  1
  C  C1394  1  0.73735700  0.50735787  -0.30118863  1
  O  O1395  1  0.76786912  0.49487725  -0.20651939  1
  H  H1396  1  0.70180652  0.29908346  -0.11472435  1
  H  H1397  1  0.70088134  0.49724185  -0.32867097  1
  H  H1398  1  0.72782864  0.53741238  -0.28924084  1
  H  H1399  1  0.77955549  0.50633160  -0.32500065  1
  H  H1400  1  0.77344803  0.45194333  -0.38347149  1
  C  C1401  1  0.78124901  0.42309804  -0.40034751  1
  C  C1402  1  0.78759034  0.41662817  -0.45876314  1
  C  C1403  1  0.78495654  0.39200670  -0.36237354  1
  C  C1404  1  0.80011003  0.37887354  -0.47739311  1
  N  N1405  1  0.78379337  0.44525323  -0.50075874  1
  C  C1406  1  0.79593671  0.35422915  -0.38167487  1
  H  H1407  1  0.77918764  0.39730027  -0.31753709  1
  H  H1408  1  0.80583330  0.37322912  -0.52217653  1
  C  C1409  1  0.80473177  0.34802237  -0.43943922  1
  H  H1410  1  0.80127514  0.43748271  -0.53915595  1
  C  C1411  1  0.75816092  0.48207198  -0.49837132  1
  O  O1412  1  0.79832439  0.32373563  -0.34442172  1
  H  H1413  1  0.81556397  0.31929042  -0.45546466  1
  C  C1414  1  0.76263927  0.50735881  -0.55118124  1
  O  O1415  1  0.73211521  0.49487562  -0.45650821  1
  H  H1416  1  0.79819942  0.29908079  -0.36472436  1
  H  H1417  1  0.79911998  0.49724414  -0.57866618  1
  H  H1418  1  0.77215714  0.53741349  -0.53922891  1
  H  H1419  1  0.72044448  0.50633142  -0.57499740  1
  H  H1420  1  0.89321657  0.04805554  0.38347132  1
  C  C1421  1  0.88541709  0.07690198  0.40034630  1
  C  C1422  1  0.87907286  0.08337166  0.45876188  1
  C  C1423  1  0.88171365  0.10799423  0.36237516  1
  C  C1424  1  0.86655855  0.12112719  0.47739433  1
  N  N1425  1  0.88287182  0.05474897  0.50075753  1
  C  C1426  1  0.87073289  0.14577138  0.38167596  1
  H  H1427  1  0.88748094  0.10270003  0.31753982  1
  H  H1428  1  0.86083619  0.12677082  0.52217844  1
  C  C1429  1  0.86194062  0.15197814  0.43944063  1
  H  H1430  1  0.86538436  0.06251427  0.53915226  1
  C  C1431  1  0.90849798  0.01792622  0.49837198  1
  O  O1432  1  0.86834725  0.17626471  0.34442252  1
  H  H1433  1  0.85110955  0.18070924  0.45546679  1
  C  C1434  1  0.90401620  -0.00736100  0.55118003  1
  O  O1435  1  0.93454300  0.00512406  0.45651200  1
  H  H1436  1  0.86847421  0.20091915  0.36472504  1
  H  H1437  1  0.86753049  0.00275073  0.57865891  1
  H  H1438  1  0.89450090  -0.03741583  0.53922517  1
  H  H1439  1  0.94620787  -0.00633244  0.57500204  1
  H  H1440  1  0.72655033  0.20194148  0.88347484  1
  C  C1441  1  0.71875096  0.17309643  0.90035197  1
  C  C1442  1  0.71241168  0.16662731  0.95876825  1
  C  C1443  1  0.71504402  0.14200465  0.86237939  1
  C  C1444  1  0.69989586  0.12887242  0.97739914  1
  N  N1445  1  0.71620693  0.19525338  1.00076234  1
  C  C1446  1  0.70406439  0.10422735  0.88168120  1
  H  H1447  1  0.72081233  0.14729798  0.81754210  1
  H  H1448  1  0.69417678  0.12322798  1.02218265  1
  C  C1449  1  0.69527250  0.09802086  0.93944625  1
  H  H1450  1  0.69872349  0.18748331  1.03915985  1
  C  C1451  1  0.74183835  0.23207215  0.99837411  1
  O  O1452  1  0.70167360  0.07373367  0.84442902  1
  H  H1453  1  0.68444192  0.06928911  0.95547271  1
  C  C1454  1  0.73735925  0.25735929  1.05118348  1
  O  O1455  1  0.76788460  0.24487581  0.95651080  1
  H  H1456  1  0.70179292  0.04907870  0.86473146  1
  H  H1457  1  0.70088172  0.24724282  1.07867089  1
  H  H1458  1  0.72783584  0.28741333  1.03923144  1
  H  H1459  1  0.77955576  0.25633475  1.07499716  1
  H  H1460  1  0.60678103  -0.20194192  0.11653393  1
  C  C1461  1  0.61458067  -0.17309616  0.09965619  1
  C  C1462  1  0.62092517  -0.16662851  0.04124126  1
  C  C1463  1  0.61828493  -0.14200179  0.13762431  1
  C  C1464  1  0.63343675  -0.12887398  0.02260352  1
  N  N1465  1  0.61712369  -0.19525138  -0.00075486  1
  C  C1466  1  0.62926832  -0.10422623  0.11831978  1
  H  H1467  1  0.61251903  -0.14729449  0.18245971  1
  H  H1468  1  0.63915695  -0.12323239  -0.02218102  1
  C  C1469  1  0.63805656  -0.09802139  0.06055467  1
  H  H1470  1  0.63460712  -0.18748623  -0.03914947  1
  C  C1471  1  0.59149931  -0.23207496  0.00163291  1
  O  O1472  1  0.63165847  -0.07373144  0.15557095  1
  H  H1473  1  0.64888746  -0.06929156  0.04452498  1
  C  C1474  1  0.59597421  -0.25735969  -0.05117838  1
  O  O1475  1  0.56545913  -0.24487803  0.04349385  1
  H  H1476  1  0.63154092  -0.04907833  0.13526579  1
  H  H1477  1  0.63245073  -0.24724350  -0.07866382  1
  H  H1478  1  0.60550047  -0.28741419  -0.03922877  1
  H  H1479  1  0.55377625  -0.25633413  -0.07499129  1
  H  H1480  1  0.89321711  -0.20194345  0.36652532  1
  C  C1481  1  0.88541532  -0.17309687  0.34965064  1
  C  C1482  1  0.87907045  -0.16662709  0.29123764  1
  C  C1483  1  0.88170892  -0.14200359  0.38762153  1
  C  C1484  1  0.86655624  -0.12887239  0.27260052  1
  N  N1485  1  0.88287752  -0.19524812  0.24923752  1
  C  C1486  1  0.87072494  -0.10422809  0.36831916  1
  H  H1487  1  0.88747255  -0.14729812  0.43245586  1
  H  H1488  1  0.86083512  -0.12322918  0.22781675  1
  C  C1489  1  0.86193605  -0.09802108  0.31055547  1
  H  H1490  1  0.86539038  -0.18748588  0.21084610  1
  C  C1491  1  0.90850464  -0.23207211  0.25162493  1
  O  O1492  1  0.86833828  -0.07373464  0.40557464  1
  H  H1493  1  0.85110386  -0.06929106  0.29452844  1
  C  C1494  1  0.90403028  -0.25735840  0.19881455  1
  O  O1495  1  0.93454590  -0.24487272  0.29348300  1
  H  H1496  1  0.86847722  -0.04908057  0.38527309  1
  H  H1497  1  0.86755075  -0.24724529  0.17133175  1
  H  H1498  1  0.89450756  -0.28741289  0.21076768  1
  H  H1499  1  0.94622711  -0.25633203  0.17499909  1
  H  H1500  1  0.77345544  0.20194306  1.13347131  1
  C  C1501  1  0.78125508  0.17309696  1.15034723  1
  C  C1502  1  0.78759829  0.16662785  1.20876190  1
  C  C1503  1  0.78496213  0.14200408  1.11237667  1
  C  C1504  1  0.80011175  0.12887331  1.22739682  1
  N  N1505  1  0.78379417  0.19524968  1.25076002  1
  C  C1506  1  0.79594563  0.10422823  1.13168070  1
  H  H1507  1  0.77919737  0.14729848  1.06754156  1
  H  H1508  1  0.80583206  0.12323024  1.27218074  1
  C  C1509  1  0.80473306  0.09802182  1.18944454  1
  H  H1510  1  0.80127772  0.18748382  1.28915470  1
  C  C1511  1  0.75816807  0.23207248  1.24837291  1
  O  O1512  1  0.79833573  0.07373483  1.09442762  1
  H  H1513  1  0.81556445  0.06929126  1.20547180  1
  C  C1514  1  0.76263911  0.25735648  1.30118560  1
  O  O1515  1  0.73212816  0.24487674  1.20651232  1
  H  H1516  1  0.79821770  0.04908046  1.11472975  1
  H  H1517  1  0.79911498  0.24724103  1.32867180  1
  H  H1518  1  0.77216440  0.28741129  1.28923862  1
  H  H1519  1  0.72044093  0.25632994  1.32499747  1
  H  H1520  1  0.60679168  0.04805546  1.13347000  1
  C  C1521  1  0.61458943  0.07690144  1.15034702  1
  C  C1522  1  0.62093942  0.08337620  1.20874796  1
  C  C1523  1  0.61829159  0.10800038  1.11237485  1
  C  C1524  1  0.63344336  0.12112502  1.22740157  1
  N  N1525  1  0.61712600  0.05475000  1.25076578  1
  C  C1526  1  0.62927891  0.14577062  1.13168494  1
  H  H1527  1  0.61253075  0.10270283  1.06754580  1
  H  H1528  1  0.63916378  0.12676882  1.27218124  1
  C  C1529  1  0.63806247  0.15198016  1.18944272  1
  H  H1530  1  0.63461105  0.06251270  1.28914451  1
  C  C1531  1  0.59150457  0.01792905  1.24836584  1
  O  O1532  1  0.63166535  0.17626695  1.09442681  1
  H  H1533  1  0.64889434  0.18070665  1.20547382  1
  C  C1534  1  0.59597249  -0.00735852  1.30118570  1
  O  O1535  1  0.56546584  0.00512567  1.20651828  1
  H  H1536  1  0.63154022  0.20091860  1.11472884  1
  H  H1537  1  0.63245008  0.00275512  1.32866372  1
  H  H1538  1  0.60549993  -0.03741238  1.28923488  1
  H  H1539  1  0.55377480  -0.00633108  1.32499888  1
  H  H1540  1  0.72655071  0.45194201  0.36652868  1
  C  C1541  1  0.71874940  0.42309647  0.34965107  1
  C  C1542  1  0.71240356  0.41662917  0.29123652  1
  C  C1543  1  0.71504510  0.39200211  0.38761978  1
  C  C1544  1  0.69989011  0.37887475  0.27259852  1
  N  N1545  1  0.71620601  0.44525211  0.24924002  1
  C  C1546  1  0.70406106  0.35422661  0.36831490  1
  H  H1547  1  0.72081180  0.39729468  0.43245500  1
  H  H1548  1  0.69416866  0.37323301  0.22781446  1
  C  C1549  1  0.69527094  0.34802209  0.31055037  1
  H  H1550  1  0.69871833  0.43748913  0.21084706  1
  C  C1551  1  0.74183545  0.48207496  0.25162774  1
  O  O1552  1  0.70167311  0.32373205  0.40556712  1
  H  H1553  1  0.68443982  0.31929202  0.29452109  1
  C  C1554  1  0.73736248  0.50736151  0.19881817  1
  O  O1555  1  0.76787832  0.49487486  0.29348794  1
  H  H1556  1  0.70180012  0.29907867  0.38526312  1
  H  H1557  1  0.70088317  0.49724887  0.17133349  1
  H  H1558  1  0.72784095  0.53741620  0.21077109  1
  H  H1559  1  0.77955958  0.50633423  0.17500395  1
  H  H1560  1  0.77345088  0.45194444  0.11652838  1
  C  C1561  1  0.78125003  0.42309800  0.09965314  1
  C  C1562  1  0.78759329  0.41662782  0.04123918  1
  C  C1563  1  0.78495595  0.39200493  0.13762349  1
  C  C1564  1  0.80010347  0.37887267  0.02260343  1
  N  N1565  1  0.78378885  0.44524892  -0.00076013  1
  C  C1566  1  0.79593918  0.35422922  0.11832187  1
  H  H1567  1  0.77919205  0.39730000  0.18245846  1
  H  H1568  1  0.80582190  0.37322894  -0.02218068  1
  C  C1569  1  0.80472559  0.34802160  0.06055725  1
  H  H1570  1  0.80127111  0.43748347  -0.03915385  1
  C  C1571  1  0.75816678  0.48207385  0.00162748  1
  O  O1572  1  0.79832847  0.32373587  0.15557613  1
  H  H1573  1  0.81555703  0.31929136  0.04453015  1
  C  C1574  1  0.76264152  0.50735745  -0.05118583  1
  O  O1575  1  0.73213015  0.49487871  0.04348706  1
  H  H1576  1  0.79819899  0.29908158  0.13527465  1
  H  H1577  1  0.79911562  0.49723980  -0.07867187  1
  H  H1578  1  0.77217128  0.53741182  -0.03923796  1
  H  H1579  1  0.72044244  0.50633323  -0.07499681  1
  H  H1580  1  0.89321329  0.04805954  0.88347060  1
  C  C1581  1  0.88541387  0.07690435  0.90034884  1
  C  C1582  1  0.87907501  0.08337340  0.95876432  1
  C  C1583  1  0.88170607  0.10799680  0.86237646  1
  C  C1584  1  0.86656156  0.12112791  0.97739772  1
  N  N1585  1  0.88287376  0.05474792  1.00076012  1
  C  C1586  1  0.87072644  0.14577343  0.88167998  1
  H  H1587  1  0.88747142  0.10270358  0.81753973  1
  H  H1588  1  0.86084377  0.12677179  1.02218123  1
  C  C1589  1  0.86193777  0.15198002  0.93944544  1
  H  H1590  1  0.86539435  0.06251877  1.03915793  1
  C  C1591  1  0.90849841  0.01792724  0.99837048  1
  O  O1592  1  0.86833559  0.17626744  0.84442807  1
  H  H1593  1  0.85110810  0.18071127  0.95547281  1
  C  C1594  1  0.90401996  -0.00735881  1.05118136  1
  O  O1595  1  0.93453848  0.00512135  0.95650595  1
  H  H1596  1  0.86846480  0.20092216  0.86472995  1
  H  H1597  1  0.86754081  0.00275717  1.07866624  1
  H  H1598  1  0.89449810  -0.03741328  1.03923094  1
  H  H1599  1  0.94621550  -0.00633223  1.07499595  1
  H  H1600  1  0.72654716  0.70194165  0.38347061  1
  C  C1601  1  0.71875139  0.67310195  0.40036324  1
  C  C1602  1  0.71242124  0.66662072  0.45875234  1
  C  C1603  1  0.71504192  0.64200766  0.36236284  1
  C  C1604  1  0.69988903  0.62887644  0.47739983  1
  N  N1605  1  0.71620935  0.69526040  0.50078545  1
  C  C1606  1  0.70407047  0.60423511  0.38167586  1
  H  H1607  1  0.72082453  0.64730186  0.31753540  1
  H  H1608  1  0.69415877  0.62322796  0.52216880  1
  C  C1609  1  0.69526143  0.59801926  0.43942468  1
  H  H1610  1  0.69873730  0.68747776  0.53915564  1
  C  C1611  1  0.74185404  0.73206873  0.49836042  1
  O  O1612  1  0.70168988  0.57373318  0.34441359  1
  H  H1613  1  0.68443552  0.56928961  0.45545775  1
  C  C1614  1  0.73736393  0.75735799  0.55118962  1
  O  O1615  1  0.76787455  0.74487748  0.45650417  1
  H  H1616  1  0.70179856  0.54908157  0.36471640  1
  H  H1617  1  0.70089161  0.74723632  0.57867769  1
  H  H1618  1  0.72784965  0.78741285  0.53923113  1
  H  H1619  1  0.77956549  0.75632787  0.57498670  1
  H  H1620  1  0.60678840  0.29805250  -0.38347137  1
  C  C1621  1  0.61458626  0.32689935  -0.40034706  1
  C  C1622  1  0.62093431  0.33337193  -0.45875390  1
  C  C1623  1  0.61828815  0.35799569  -0.36237597  1
  C  C1624  1  0.63343981  0.37112417  -0.47739968  1
  N  N1625  1  0.61712600  0.30474871  -0.50076293  1
  C  C1626  1  0.62927197  0.39576887  -0.38168189  1
  H  H1627  1  0.61252699  0.35269930  -0.31754421  1
  H  H1628  1  0.63916018  0.37676765  -0.52218157  1
  C  C1629  1  0.63805763  0.40197735  -0.43944286  1
  H  H1630  1  0.63461357  0.31251062  -0.53914736  1
  C  C1631  1  0.59150258  0.26792552  -0.49837031  1
  O  O1632  1  0.63165600  0.42626395  -0.34442538  1
  H  H1633  1  0.64888827  0.43070572  -0.45547234  1
  C  C1634  1  0.59597502  0.24263949  -0.55118589  1
  O  O1635  1  0.56546246  0.25512344  -0.45651846  1
  H  H1636  1  0.63152103  0.45091660  -0.36472766  1
  H  H1637  1  0.63245196  0.25275420  -0.57866673  1
  H  H1638  1  0.60550251  0.21258534  -0.53923532  1
  H  H1639  1  0.55377689  0.24366580  -0.57499947  1
  H  H1640  1  0.89321329  0.29805455  -0.13347021  1
  C  C1641  1  0.88541392  0.32690126  -0.15034513  1
  C  C1642  1  0.87907061  0.33337186  -0.20875811  1
  C  C1643  1  0.88170811  0.35799403  -0.11237374  1
  C  C1644  1  0.86655898  0.37112677  -0.22739437  1
  N  N1645  1  0.88287521  0.30475038  -0.25075876  1
  C  C1646  1  0.87072558  0.39577001  -0.13167555  1
  H  H1647  1  0.88747142  0.35269882  -0.06753912  1
  H  H1648  1  0.86083888  0.37677046  -0.27217803  1
  C  C1649  1  0.86193809  0.40197784  -0.18943950  1
  H  H1650  1  0.86539183  0.31251565  -0.28915117  1
  C  C1651  1  0.90849916  0.26792646  -0.24837074  1
  O  O1652  1  0.86833806  0.42626319  -0.09442067  1
  H  H1653  1  0.85110703  0.43070829  -0.20546617  1
  C  C1654  1  0.90402393  0.24264176  -0.30118313  1
  O  O1655  1  0.93453794  0.25512276  -0.20651190  1
  H  H1656  1  0.86846985  0.45091740  -0.11472203  1
  H  H1657  1  0.86754726  0.25275767  -0.32866753  1
  H  H1658  1  0.89449762  0.21258741  -0.28923344  1
  H  H1659  1  0.94622163  0.24366732  -0.32499651  1
  H  H1660  1  0.77344383  0.70193776  0.63347312  1
  C  C1661  1  0.78124632  0.67309340  0.65035150  1
  C  C1662  1  0.78758797  0.66662663  0.70876825  1
  C  C1663  1  0.78495493  0.64200085  0.61238090  1
  C  C1664  1  0.80010712  0.62887206  0.72740069  1
  N  N1665  1  0.78378928  0.69525033  0.75076253  1
  C  C1666  1  0.79593853  0.60422469  0.63168523  1
  H  H1667  1  0.77918581  0.64729283  0.56754402  1
  H  H1668  1  0.80582884  0.62322956  0.77218400  1
  C  C1669  1  0.80473113  0.59802017  0.68945033  1
  H  H1670  1  0.80127326  0.68748235  0.78915959  1
  C  C1671  1  0.75815732  0.73207116  0.74837436  1
  O  O1672  1  0.79833062  0.57373037  0.59443457  1
  H  H1673  1  0.81556284  0.56928902  0.70547729  1
  C  C1674  1  0.76263733  0.75735827  0.80118281  1
  O  O1675  1  0.73211257  0.74487338  0.70651180  1
  H  H1676  1  0.79821420  0.54907556  0.61473711  1
  H  H1677  1  0.79911675  0.74724354  0.82866775  1
  H  H1678  1  0.77215908  0.78741257  0.78923088  1
  H  H1679  1  0.72044254  0.75633328  0.82499902  1
  H  H1680  1  0.60679496  0.54805828  0.63346968  1
  C  C1681  1  0.61459013  0.57690431  0.65034691  1
  C  C1682  1  0.62092539  0.58337334  0.70876345  1
  C  C1683  1  0.61829525  0.60799502  0.61237459  1
  C  C1684  1  0.63343895  0.62112922  0.72739453  1
  N  N1685  1  0.61712718  0.55474891  0.75075754  1
  C  C1686  1  0.62927240  0.64577327  0.63167665  1
  H  H1687  1  0.61252790  0.60270172  0.56753796  1
  H  H1688  1  0.63915625  0.62677319  0.77217845  1
  C  C1689  1  0.63806166  0.65197973  0.68944195  1
  H  H1690  1  0.63460637  0.56251755  0.78915631  1
  C  C1691  1  0.59149646  0.51792891  0.74836729  1
  O  O1692  1  0.63166277  0.67626581  0.59442367  1
  H  H1693  1  0.64888950  0.68071192  0.70546851  1
  C  C1694  1  0.59597002  0.49264288  0.80117781  1
  O  O1695  1  0.56545579  0.50512474  0.70650261  1
  H  H1696  1  0.63154619  0.70092166  0.61472454  1
  H  H1697  1  0.63244788  0.50275750  0.82866522  1
  H  H1698  1  0.60548972  0.46258823  0.78922735  1
  H  H1699  1  0.55377351  0.49367030  0.82499064  1
  H  H1700  1  0.72654087  0.95194375  -0.13347257  1
  C  C1701  1  0.71874285  0.92309752  -0.15034883  1
  C  C1702  1  0.71240195  0.91662901  -0.20876402  1
  C  C1703  1  0.71503677  0.89200511  -0.11237830  1
  C  C1704  1  0.69989075  0.87887375  -0.22739841  1
  N  N1705  1  0.71620354  0.94525125  -0.25076078  1
  C  C1706  1  0.70405520  0.85422881  -0.13168126  1
  H  H1707  1  0.72080083  0.89729903  -0.06754252  1
  H  H1708  1  0.69417243  0.87323013  -0.27218228  1
  C  C1709  1  0.69526831  0.84802213  -0.18944614  1
  H  H1710  1  0.69872037  0.93748494  -0.28915607  1
  C  C1711  1  0.74182911  0.98207452  -0.24837319  1
  O  O1712  1  0.70166500  0.82373529  -0.09442805  1
  H  H1713  1  0.68443778  0.81929126  -0.20547330  1
  C  C1714  1  0.73735383  1.00736010  -0.30118439  1
  O  O1715  1  0.76786950  0.99487806  -0.20651217  1
  H  H1716  1  0.70178921  0.79908062  -0.11472984  1
  H  H1717  1  0.70087634  0.99724460  -0.32866988  1
  H  H1718  1  0.72782950  1.03741440  -0.28923491  1
  H  H1719  1  0.77955098  1.00633400  -0.32499823  1
  H  H1720  1  0.77345098  0.95194855  -0.38347311  1
  C  C1721  1  0.78124707  0.92310127  -0.40034801  1
  C  C1722  1  0.78759302  0.91662741  -0.45875365  1
  C  C1723  1  0.78495063  0.89200525  -0.36237546  1
  C  C1724  1  0.80009664  0.87887507  -0.47739983  1
  N  N1725  1  0.78378401  0.94525000  -0.50076520  1
  C  C1726  1  0.79593520  0.85423200  -0.38168118  1
  H  H1727  1  0.77919108  0.89730278  -0.31754457  1
  H  H1728  1  0.80581470  0.87323027  -0.52218122  1
  C  C1729  1  0.80471710  0.84802248  -0.43944159  1
  H  H1730  1  0.80126890  0.93748647  -0.53914903  1
  C  C1731  1  0.75816345  0.98207348  -0.49837279  1
  O  O1732  1  0.79832396  0.82373758  -0.34442366  1
  H  H1733  1  0.81554886  0.81929432  -0.45547087  1
  C  C1734  1  0.76263577  1.00735850  -0.55119033  1
  O  O1735  1  0.73212531  0.99487806  -0.45652084  1
  H  H1736  1  0.79819947  0.79908507  -0.36472574  1
  H  H1737  1  0.79910842  0.99724030  -0.57867325  1
  H  H1738  1  0.77217063  1.03741190  -0.53924193  1
  H  H1739  1  0.72043593  1.00633518  -0.57500053  1
  H  H1740  1  0.89323237  0.54805627  0.38347202  1
  C  C1741  1  0.88542682  0.57690191  0.40034940  1
  C  C1742  1  0.87907432  0.58336980  0.45876132  1
  C  C1743  1  0.88172273  0.60799669  0.36238018  1
  C  C1744  1  0.86656022  0.62112297  0.47740180  1
  N  N1745  1  0.88287693  0.55474620  0.50076152  1
  C  C1746  1  0.87073434  0.64577160  0.38168558  1
  H  H1747  1  0.88749061  0.60270401  0.31754646  1
  H  H1748  1  0.86083587  0.62676430  0.52218516  1
  C  C1749  1  0.86194288  0.65197640  0.43944886  1
  H  H1750  1  0.86538855  0.56251015  0.53915196  1
  C  C1751  1  0.90850056  0.51792332  0.49837385  1
  O  O1752  1  0.86834752  0.67626616  0.34443176  1
  H  H1753  1  0.85110955  0.68070567  0.45547860  1
  C  C1754  1  0.90402641  0.49263833  0.55118695  1
  O  O1755  1  0.93454235  0.50512019  0.45651639  1
  H  H1756  1  0.86848044  0.70091937  0.36473567  1
  H  H1757  1  0.86754849  0.50275407  0.57866996  1
  H  H1758  1  0.89450058  0.46258368  0.53923744  1
  H  H1759  1  0.94622410  0.49366536  0.57500018  1
  H  H1760  1  0.72653953  0.70194047  0.88347141  1
  C  C1761  1  0.71874295  0.67309479  0.90034813  1
  C  C1762  1  0.71240544  0.66662531  0.95876482  1
  C  C1763  1  0.71503585  0.64200245  0.86237636  1
  C  C1764  1  0.69989344  0.62887026  0.97739712  1
  N  N1765  1  0.71620623  0.69524873  1.00075921  1
  C  C1766  1  0.70405665  0.60422587  0.88167968  1
  H  H1767  1  0.72079965  0.64729630  0.81754049  1
  H  H1768  1  0.69417635  0.62322594  1.02218144  1
  C  C1769  1  0.69526965  0.59801850  0.93944464  1
  H  H1770  1  0.69872596  0.68748054  1.03915712  1
  C  C1771  1  0.74183217  0.73207089  0.99837220  1
  O  O1772  1  0.70166521  0.57373176  0.84442675  1
  H  H1773  1  0.68444014  0.56928753  0.95547159  1
  C  C1774  1  0.73735780  0.75735591  1.05118216  1
  O  O1775  1  0.76787283  0.74487533  0.95650737  1
  H  H1776  1  0.70178577  0.54907754  0.86472884  1
  H  H1777  1  0.70088161  0.74723944  1.07866978  1
  H  H1778  1  0.72783283  0.78741063  1.03923306  1
  H  H1779  1  0.77955555  0.75633071  1.07499453  1
  H  H1780  1  0.60677926  0.29806142  0.11652785  1
  C  C1781  1  0.61458153  0.32690668  0.09965008  1
  C  C1782  1  0.62092571  0.33337405  0.04123441  1
  C  C1783  1  0.61828815  0.35799979  0.13761975  1
  C  C1784  1  0.63344164  0.37112861  0.02259936  1
  N  N1785  1  0.61712471  0.30475031  -0.00076044  1
  C  C1786  1  0.62927299  0.39577599  0.11831575  1
  H  H1787  1  0.61252005  0.35270757  0.18245567  1
  H  H1788  1  0.63916287  0.37677067  -0.02218488  1
  C  C1789  1  0.63806397  0.40198048  0.06055073  1
  H  H1790  1  0.63460782  0.31251666  -0.03915679  1
  C  C1791  1  0.59149716  0.26792837  0.00162794  1
  O  O1792  1  0.63166288  0.42627027  0.15556715  1
  H  H1793  1  0.64889681  0.43071100  0.04452212  1
  C  C1794  1  0.59597614  0.24264128  -0.05118068  1
  O  O1795  1  0.56545354  0.25512587  0.04348994  1
  H  H1796  1  0.63153775  0.45092417  0.13526306  1
  H  H1797  1  0.63245556  0.25275613  -0.07866493  1
  H  H1798  1  0.60549913  0.21258696  -0.03922810  1
  H  H1799  1  0.55378050  0.24366659  -0.07499664  1
  H  H1800  1  0.89321109  0.29805805  0.36652984  1
  C  C1801  1  0.88541215  0.32690387  0.34965314  1
  C  C1802  1  0.87907012  0.33337235  0.29123751  1
  C  C1803  1  0.88170693  0.35799649  0.38762370  1
  C  C1804  1  0.86655640  0.37112774  0.27260367  1
  N  N1805  1  0.88287096  0.30474951  0.24924219  1
  C  C1806  1  0.87072526  0.39577310  0.36832103  1
  H  H1807  1  0.88747384  0.35270295  0.43245944  1
  H  H1808  1  0.86083603  0.37677077  0.22781953  1
  C  C1809  1  0.86193578  0.40197905  0.31055605  1
  H  H1810  1  0.86538753  0.31251534  0.21084594  1
  C  C1811  1  0.90849981  0.26792734  0.25162991  1
  O  O1812  1  0.86833602  0.42626662  0.40557356  1
  H  H1813  1  0.85110558  0.43071027  0.29452877  1
  C  C1814  1  0.90402587  0.24264147  0.19881994  1
  O  O1815  1  0.93454095  0.25512467  0.29349221  1
  H  H1816  1  0.86845792  0.45092115  0.38527082  1
  H  H1817  1  0.86754699  0.25275502  0.17133422  1
  H  H1818  1  0.89450536  0.21258661  0.21077114  1
  H  H1819  1  0.94622249  0.24366894  0.17500580  1
  H  H1820  1  0.77345657  0.70194609  1.13346747  1
  C  C1821  1  0.78125551  0.67310097  1.15034632  1
  C  C1822  1  0.78760958  0.66662447  1.20874231  1
  C  C1823  1  0.78495708  0.64199884  1.11237404  1
  C  C1824  1  0.80011374  0.62887901  1.22740338  1
  N  N1825  1  0.78379326  0.69525464  1.25076497  1
  C  C1826  1  0.79594654  0.60423115  1.13168686  1
  H  H1827  1  0.77919586  0.64729679  1.06754650  1
  H  H1828  1  0.80583706  0.62323594  1.27218185  1
  C  C1829  1  0.80473204  0.59802135  1.18944293  1
  H  H1830  1  0.80128148  0.68749249  1.28913936  1
  C  C1831  1  0.75816936  0.73207158  1.24836049  1
  O  O1832  1  0.79833116  0.57373245  1.09442843  1
  H  H1833  1  0.81556488  0.56929652  1.20547645  1
  C  C1834  1  0.76263701  0.75736244  1.30118126  1
  O  O1835  1  0.73212579  0.74487276  1.20651707  1
  H  H1836  1  0.79820216  0.54908275  1.11473258  1
  H  H1837  1  0.79911680  0.74725021  1.32865605  1
  H  H1838  1  0.77216306  0.78741542  1.28922570  1
  H  H1839  1  0.72044045  0.75633439  1.32499616  1
  H  H1840  1  0.60679216  0.54805749  1.13346768  1
  C  C1841  1  0.61458997  0.57690382  1.15034480  1
  C  C1842  1  0.62093436  0.58337431  1.20875483  1
  C  C1843  1  0.61829444  0.60799926  1.11237475  1
  C  C1844  1  0.63344228  0.62112749  1.22739914  1
  N  N1845  1  0.61712406  0.55475179  1.25075821  1
  C  C1846  1  0.62927896  0.64577333  1.13168161  1
  H  H1847  1  0.61253317  0.60270436  1.06754216  1
  H  H1848  1  0.63916141  0.62676986  1.27218124  1
  C  C1849  1  0.63806284  0.65198057  1.18944323  1
  H  H1850  1  0.63460772  0.56251418  1.28914743  1
  C  C1851  1  0.59149984  0.51792821  1.24836594  1
  O  O1852  1  0.63166723  0.67626810  1.09442641  1
  H  H1853  1  0.64889278  0.68070963  1.20547362  1
  C  C1854  1  0.59597179  0.49264180  1.30117833  1
  O  O1855  1  0.56546117  0.50512651  1.20650909  1
  H  H1856  1  0.63153899  0.70092076  1.11472945  1
  H  H1857  1  0.63244890  0.50275594  1.32866150  1
  H  H1858  1  0.60549843  0.46258754  1.28922681  1
  H  H1859  1  0.55377378  0.49366741  1.32499192  1
  H  H1860  1  0.72655420  0.95194841  0.36652497  1
  C  C1861  1  0.71875134  0.92310113  0.34965284  1
  C  C1862  1  0.71240356  0.91663054  0.29123865  1
  C  C1863  1  0.71504628  0.89200969  0.38762514  1
  C  C1864  1  0.69988667  0.87887465  0.27260721  1
  N  N1865  1  0.71620553  0.94525007  0.24923893  1
  C  C1866  1  0.70406300  0.85423332  0.36832606  1
  H  H1867  1  0.72081298  0.89730570  0.43245990  1
  H  H1868  1  0.69416189  0.87323041  0.22782392  1
  C  C1869  1  0.69526922  0.84802484  0.31056259  1
  H  H1870  1  0.69871591  0.93748661  0.21084675  1
  C  C1871  1  0.74183507  0.98207396  0.25162228  1
  O  O1872  1  0.70167956  0.82374077  0.40558214  1
  H  H1873  1  0.68443617  0.81929355  0.29453912  1
  C  C1874  1  0.73736146  1.00735711  0.19881009  1
  O  O1875  1  0.76787746  0.99487674  0.29348029  1
  H  H1876  1  0.70181646  0.79908569  0.38528314  1
  H  H1877  1  0.70088301  0.99724314  0.17132617  1
  H  H1878  1  0.72783955  1.03741245  0.21075869  1
  H  H1879  1  0.77955824  1.00632955  0.17499548  1
  H  H1880  1  0.77344163  0.95193285  0.11652934  1
  C  C1881  1  0.78124476  0.92309009  0.09964667  1
  C  C1882  1  0.78758502  0.91662234  0.04123239  1
  C  C1883  1  0.78495402  0.89199643  0.13762036  1
  C  C1884  1  0.80010664  0.87887070  0.02259721  1
  N  N1885  1  0.78379057  0.94525243  -0.00076336  1
  C  C1886  1  0.79593606  0.85422075  0.11831341  1
  H  H1887  1  0.77918130  0.89728681  0.18245685  1
  H  H1888  1  0.80582927  0.87322756  -0.02218535  1
  C  C1889  1  0.80473226  0.84801581  0.06054956  1
  H  H1890  1  0.80126584  0.93747779  -0.03916087  1
  C  C1891  1  0.75816248  0.98207014  0.00163194  1
  O  O1892  1  0.79832869  0.82372418  0.15556397  1
  H  H1893  1  0.81556440  0.81928550  0.04451945  1
  C  C1894  1  0.76264394  1.00735760  -0.05117932  1
  O  O1895  1  0.73212343  0.99487598  0.04349889  1
  H  H1896  1  0.79821028  0.79907097  0.13525839  1
  H  H1897  1  0.79912487  0.99724231  -0.07866466  1
  H  H1898  1  0.77216005  1.03741259  -0.03922586  1
  H  H1899  1  0.72044867  1.00632969  -0.07499364  1
  H  H1900  1  0.89321415  0.54805832  0.88347413  1
  C  C1901  1  0.88541489  0.57690375  0.90035035  1
  C  C1902  1  0.87907227  0.58337306  0.95876664  1
  C  C1903  1  0.88171053  0.60799641  0.86237989  1
  C  C1904  1  0.86655785  0.62112763  0.97739883  1
  N  N1905  1  0.88287043  0.55474811  1.00076173  1
  C  C1906  1  0.87072950  0.64577313  0.88168130  1
  H  H1907  1  0.88747900  0.60270276  0.81754337  1
  H  H1908  1  0.86083721  0.62677139  1.02218295  1
  C  C1909  1  0.86193713  0.65197952  0.93944655  1
  H  H1910  1  0.86538597  0.56251581  1.03915773  1
  C  C1911  1  0.90849884  0.51792790  0.99837411  1
  O  O1912  1  0.86834139  0.67626692  0.84442928  1
  H  H1913  1  0.85110638  0.68071046  0.95547321  1
  C  C1914  1  0.90402307  0.49264090  1.05118408  1
  O  O1915  1  0.93454300  0.50512429  0.95651201  1
  H  H1916  1  0.86846351  0.70092159  0.86473197  1
  H  H1917  1  0.86754479  0.50275559  1.07866957  1
  H  H1918  1  0.89450111  0.46258660  1.03923215  1
  H  H1919  1  0.94621948  0.49366696  1.07499827  1
