# generated using pymatgen
data_H3C3O
_symmetry_space_group_name_H-M   'P 1'
_cell_length_a   23.80200000
_cell_length_b   25.21200000
_cell_length_c   22.04400000
_cell_angle_alpha   90.00000000
_cell_angle_beta   90.00000000
_cell_angle_gamma   90.00000000
_symmetry_Int_Tables_number   1
_chemical_formula_structural   H3C3O
_chemical_formula_sum   'H576 C576 O192'
_cell_volume   13228.51675306
_cell_formula_units_Z   192
loop_
 _symmetry_equiv_pos_site_id
 _symmetry_equiv_pos_as_xyz
  1  'x, y, z'
loop_
 _atom_site_type_symbol
 _atom_site_label
 _atom_site_symmetry_multiplicity
 _atom_site_fract_x
 _atom_site_fract_y
 _atom_site_fract_z
 _atom_site_occupancy
  H  H0  1  0.03676211  -0.02229959  0.32264140  1
  C  C1  1  0.05507909  0.00542572  0.29059673  1
  C  C2  1  0.04350568  0.05973266  0.29529391  1
  C  C3  1  0.09071755  -0.01306208  0.24478979  1
  H  H4  1  0.01588826  0.07427280  0.33075497  1
  C  C5  1  0.06805868  0.09550505  0.25454844  1
  O  O6  1  0.10447854  -0.06562271  0.24014483  1
  C  C7  1  0.11449264  0.02290063  0.20411694  1
  H  H8  1  0.05931627  0.13762150  0.25832081  1
  C  C9  1  0.10413577  0.07722966  0.20905053  1
  H  H10  1  0.07899506  -0.08764847  0.26460231  1
  H  H11  1  0.14169577  0.00806433  0.16871542  1
  O  O12  1  0.12976146  0.11207527  0.17014614  1
  H  H13  1  0.15895801  0.09395721  0.14661047  1
  H  H14  1  -0.03676144  0.02230607  0.44763772  1
  C  C15  1  -0.05507838  -0.00542246  0.41559652  1
  C  C16  1  -0.04350749  -0.05972795  0.42029968  1
  C  C17  1  -0.09071643  0.01306373  0.36978566  1
  H  H18  1  -0.01589040  -0.07426648  0.45576355  1
  C  C19  1  -0.06806006  -0.09550514  0.37955915  1
  O  O20  1  -0.10447546  0.06562260  0.36513407  1
  C  C21  1  -0.11449045  -0.02290434  0.32911787  1
  H  H22  1  -0.05931987  -0.13762016  0.38333609  1
  C  C23  1  -0.10413699  -0.07723077  0.33405716  1
  H  H24  1  -0.07899347  0.08765078  0.38959177  1
  H  H25  1  -0.14169309  -0.00806914  0.29371254  1
  O  O26  1  -0.12976224  -0.11208102  0.29515764  1
  H  H27  1  -0.15895848  -0.09396300  0.27161856  1
  H  H28  1  0.12990526  0.22769390  0.44763775  1
  C  C29  1  0.11158786  0.25542191  0.41559604  1
  C  C30  1  0.12315951  0.30972850  0.42030022  1
  C  C31  1  0.07595078  0.23693697  0.36978633  1
  H  H32  1  0.15077601  0.32426634  0.45576338  1
  C  C33  1  0.09860596  0.34550426  0.37955848  1
  O  O34  1  0.06219106  0.18437718  0.36513377  1
  C  C35  1  0.05217544  0.27290364  0.32911703  1
  H  H36  1  0.10734713  0.38762050  0.38333620  1
  C  C37  1  0.06253054  0.32723137  0.33405810  1
  H  H38  1  0.08767323  0.16234932  0.38959195  1
  H  H39  1  0.02497394  0.25806934  0.29371276  1
  O  O40  1  0.03690379  0.36208072  0.29515720  1
  H  H41  1  0.00770844  0.34396318  0.27161899  1
  H  H42  1  0.20342857  0.27229965  0.32264132  1
  C  C43  1  0.22174505  0.24457375  0.29059749  1
  C  C44  1  0.21017296  0.19026793  0.29529332  1
  C  C45  1  0.25738486  0.26306271  0.24478909  1
  H  H46  1  0.18255461  0.17572696  0.33075538  1
  C  C47  1  0.23472475  0.15449439  0.25454923  1
  O  O48  1  0.27114529  0.31562239  0.24014518  1
  C  C49  1  0.28115833  0.22709868  0.20411800  1
  H  H50  1  0.22598311  0.11237870  0.25832089  1
  C  C51  1  0.27080302  0.17277101  0.20904960  1
  H  H52  1  0.24566179  0.33764868  0.26460212  1
  H  H53  1  0.30836278  0.24193590  0.16871512  1
  O  O54  1  0.29642726  0.13792440  0.17014652  1
  H  H55  1  0.32562502  0.15604302  0.14661030  1
  H  H56  1  0.03676188  -0.02229965  0.57264154  1
  C  C57  1  0.05507883  0.00542605  0.54059682  1
  C  C58  1  0.04350570  0.05973246  0.54529392  1
  C  C59  1  0.09071758  -0.01306260  0.49478983  1
  H  H60  1  0.01588807  0.07427297  0.58075501  1
  C  C61  1  0.06805843  0.09550554  0.50454861  1
  O  O62  1  0.10447893  -0.06562232  0.49014491  1
  C  C63  1  0.11449219  0.02290127  0.45411725  1
  H  H64  1  0.05931643  0.13762144  0.50832087  1
  C  C65  1  0.10413582  0.07722901  0.45905029  1
  H  H66  1  0.07899508  -0.08764884  0.51460223  1
  H  H67  1  0.14169587  0.00806415  0.41871536  1
  O  O68  1  0.12976136  0.11207539  0.42014607  1
  H  H69  1  0.15895807  0.09395700  0.39661062  1
  H  H70  1  -0.03676183  0.02230573  0.69763738  1
  C  C71  1  -0.05507796  -0.00542136  0.66559737  1
  C  C72  1  -0.04350783  -0.05972890  0.67029901  1
  C  C73  1  -0.09071688  0.01306219  0.61978475  1
  H  H74  1  -0.01589026  -0.07426632  0.70576372  1
  C  C75  1  -0.06805984  -0.09550384  0.62955970  1
  O  O76  1  -0.10447504  0.06562340  0.61513448  1
  C  C77  1  -0.11449015  -0.02290284  0.57911861  1
  H  H78  1  -0.05931977  -0.13762062  0.63333612  1
  C  C79  1  -0.10413724  -0.07723243  0.58405635  1
  H  H80  1  -0.07899374  0.08765045  0.63959137  1
  H  H81  1  -0.14169305  -0.00806929  0.54371236  1
  O  O82  1  -0.12976187  -0.11208053  0.54515835  1
  H  H83  1  -0.15895847  -0.09396287  0.52161841  1
  H  H84  1  0.12990525  0.22769395  0.69763765  1
  C  C85  1  0.11158837  0.25542243  0.66559661  1
  C  C86  1  0.12315932  0.30972805  0.67029987  1
  C  C87  1  0.07595021  0.23693629  0.61978567  1
  H  H88  1  0.15077620  0.32426643  0.70576350  1
  C  C89  1  0.09860651  0.34550518  0.62955905  1
  O  O90  1  0.06219108  0.18437751  0.61513421  1
  C  C91  1  0.05217617  0.27290407  0.57911774  1
  H  H92  1  0.10734671  0.38762022  0.63333623  1
  C  C93  1  0.06252983  0.32723111  0.58405706  1
  H  H94  1  0.08767324  0.16234910  0.63959158  1
  H  H95  1  0.02497362  0.25806920  0.54371257  1
  O  O96  1  0.03690421  0.36208070  0.54515748  1
  H  H97  1  0.00770830  0.34396320  0.52161889  1
  H  H98  1  0.20342885  0.27229937  0.57264121  1
  C  C99  1  0.22174536  0.24457458  0.54059726  1
  C  C100  1  0.21017241  0.19026711  0.54529381  1
  C  C101  1  0.25738469  0.26306207  0.49478918  1
  H  H102  1  0.18255498  0.17572719  0.58075506  1
  C  C103  1  0.23472515  0.15449496  0.50454867  1
  O  O104  1  0.27114522  0.31562272  0.49014524  1
  C  C105  1  0.28115873  0.22709921  0.45411774  1
  H  H106  1  0.22598322  0.11237840  0.50832087  1
  C  C107  1  0.27080267  0.17277052  0.45905002  1
  H  H108  1  0.24566181  0.33764847  0.51460212  1
  H  H109  1  0.30836256  0.24193583  0.41871506  1
  O  O110  1  0.29642756  0.13792453  0.42014645  1
  H  H111  1  0.32562489  0.15604307  0.39661029  1
  H  H112  1  0.03676235  -0.02229929  0.82264095  1
  C  C113  1  0.05507823  0.00542499  0.79059824  1
  C  C114  1  0.04350651  0.05973328  0.79529295  1
  C  C115  1  0.09071855  -0.01306146  0.74478832  1
  H  H116  1  0.01588776  0.07427283  0.83075523  1
  C  C117  1  0.06805785  0.09550463  0.75454981  1
  O  O118  1  0.10447799  -0.06562310  0.74014546  1
  C  C119  1  0.11449119  0.02290054  0.70411867  1
  H  H120  1  0.05931634  0.13762166  0.75832088  1
  C  C121  1  0.10413675  0.07722980  0.70904895  1
  H  H122  1  0.07899511  -0.08764844  0.76460213  1
  H  H123  1  0.14169637  0.00806429  0.66871490  1
  O  O124  1  0.12976037  0.11207561  0.67014710  1
  H  H125  1  0.15895850  0.09395677  0.64661003  1
  H  H126  1  -0.03676196  0.02230586  0.94763706  1
  C  C127  1  -0.05507781  -0.00542109  0.91559786  1
  C  C128  1  -0.04350839  -0.05972910  0.92029831  1
  C  C129  1  -0.09071727  0.01306228  0.86978427  1
  H  H130  1  -0.01588995  -0.07426616  0.95576399  1
  C  C131  1  -0.06805924  -0.09550388  0.87956074  1
  O  O132  1  -0.10447474  0.06562349  0.86513476  1
  C  C133  1  -0.11448944  -0.02290308  0.82911943  1
  H  H134  1  -0.05931969  -0.13762057  0.88333635  1
  C  C135  1  -0.10413802  -0.07723248  0.83405550  1
  H  H136  1  -0.07899355  0.08765051  0.88959154  1
  H  H137  1  -0.14169354  -0.00806931  0.79371215  1
  O  O138  1  -0.12976149  -0.11208067  0.79515900  1
  H  H139  1  -0.15895878  -0.09396294  0.77161847  1
  H  H140  1  0.12990483  0.22769433  0.94763728  1
  C  C141  1  0.11158891  0.25542099  0.91559797  1
  C  C142  1  0.12315884  0.30972935  0.92029918  1
  C  C143  1  0.07594947  0.23693785  0.86978432  1
  H  H144  1  0.15077636  0.32426643  0.95576356  1
  C  C145  1  0.09860691  0.34550393  0.87956003  1
  O  O146  1  0.06219190  0.18437647  0.86513476  1
  C  C147  1  0.05217710  0.27290312  0.82911932  1
  H  H148  1  0.10734710  0.38762067  0.88333591  1
  C  C149  1  0.06252901  0.32723217  0.83405598  1
  H  H150  1  0.08767266  0.16234952  0.88959137  1
  H  H151  1  0.02497297  0.25806922  0.79371242  1
  O  O152  1  0.03690487  0.36208051  0.79515852  1
  H  H153  1  0.00770790  0.34396268  0.77161841  1
  H  H154  1  0.20342842  0.27229982  0.82264149  1
  C  C155  1  0.22174583  0.24457366  0.79059651  1
  C  C156  1  0.21017233  0.19026780  0.79529425  1
  C  C157  1  0.25738429  0.26306325  0.74479010  1
  H  H158  1  0.18255484  0.17572716  0.83075496  1
  C  C159  1  0.23472523  0.15449414  0.75454851  1
  O  O160  1  0.27114554  0.31562196  0.74014481  1
  C  C161  1  0.28115901  0.22709812  0.70411694  1
  H  H162  1  0.22598291  0.11237879  0.75832088  1
  C  C163  1  0.27080237  0.17277167  0.70905057  1
  H  H164  1  0.24566129  0.33764875  0.76460251  1
  H  H165  1  0.30836268  0.24193575  0.66871539  1
  O  O166  1  0.29642806  0.13792430  0.67014591  1
  H  H167  1  0.32562469  0.15604283  0.64661068  1
  H  H168  1  0.03676251  -0.02229916  1.07264112  1
  C  C169  1  0.05507725  0.00542651  1.04059932  1
  C  C170  1  0.04350761  0.05973178  1.04529155  1
  C  C171  1  0.09071943  -0.01306261  0.99478703  1
  H  H172  1  0.01588746  0.07427345  1.08075583  1
  C  C173  1  0.06805701  0.09550578  1.00455047  1
  O  O174  1  0.10447773  -0.06562268  0.99014585  1
  C  C175  1  0.11449054  0.02290130  0.95411970  1
  H  H176  1  0.05931651  0.13762117  1.00832045  1
  C  C177  1  0.10413767  0.07722893  0.95904825  1
  H  H178  1  0.07899551  -0.08764840  1.01460171  1
  H  H179  1  0.14169645  0.00806374  0.91871448  1
  O  O180  1  0.12976033  0.11207570  0.92014733  1
  H  H181  1  0.15895862  0.09395661  0.89660998  1
  H  H182  1  -0.03676123  0.02230614  1.19763815  1
  C  C183  1  -0.05507971  -0.00542205  1.16559484  1
  C  C184  1  -0.04350679  -0.05972857  1.17030048  1
  C  C185  1  -0.09071473  0.01306302  1.11978784  1
  H  H186  1  -0.01589047  -0.07426632  1.20576303  1
  C  C187  1  -0.06806119  -0.09550436  1.12955788  1
  O  O188  1  -0.10447613  0.06562309  1.11513368  1
  C  C189  1  -0.11449235  -0.02290326  1.07911533  1
  H  H190  1  -0.05931994  -0.13762064  1.13333641  1
  C  C191  1  -0.10413547  -0.07723158  1.08405913  1
  H  H192  1  -0.07899326  0.08765070  1.13959171  1
  H  H193  1  -0.14169216  -0.00806959  1.04371345  1
  O  O194  1  -0.12976348  -0.11208043  1.04515647  1
  H  H195  1  -0.15895776  -0.09396352  1.02161929  1
  H  H196  1  0.12990586  0.22769329  1.19763902  1
  C  C197  1  0.11158466  0.25542259  1.16559149  1
  C  C198  1  0.12316234  0.30972843  1.17030373  1
  C  C199  1  0.07595423  0.23693648  1.11979130  1
  H  H200  1  0.15077466  0.32426593  1.20576216  1
  C  C201  1  0.09860319  0.34550431  1.12955453  1
  O  O202  1  0.06218953  0.18437746  1.11513249  1
  C  C203  1  0.05217146  0.27290353  1.07911176  1
  H  H204  1  0.10734718  0.38762081  1.13333652  1
  C  C205  1  0.06253413  0.32723113  1.08406291  1
  H  H206  1  0.08767436  0.16234909  1.13959257  1
  H  H207  1  0.02497536  0.25807010  1.04371454  1
  O  O208  1  0.03690088  0.36207997  1.04515398  1
  H  H209  1  0.00771007  0.34396452  1.02162026  1
  H  H210  1  0.20342922  0.27229894  1.07264004  1
  C  C211  1  0.22174228  0.24457423  1.04060181  1
  C  C212  1  0.21017534  0.19026769  1.04529026  1
  C  C213  1  0.25738844  0.26306200  0.99478400  1
  H  H214  1  0.18255349  0.17572659  1.08075616  1
  C  C215  1  0.23472222  0.15449419  1.00455285  1
  O  O216  1  0.27114381  0.31562302  0.99014693  1
  C  C217  1  0.28115430  0.22709878  0.95412305  1
  H  H218  1  0.22598352  0.11237878  1.00832067  1
  C  C219  1  0.27080645  0.17277075  0.95904468  1
  H  H220  1  0.24566302  0.33764854  1.01460106  1
  H  H221  1  0.30836436  0.24193649  0.91871340  1
  O  O222  1  0.29642450  0.13792371  0.92014938  1
  H  H223  1  0.32562662  0.15604428  0.89660906  1
  H  H224  1  0.03676207  0.47770030  0.32264118  1
  C  C225  1  0.05507790  0.50542658  0.29059820  1
  C  C226  1  0.04350707  0.55973135  0.29529251  1
  C  C227  1  0.09071897  0.48693652  0.24478822  1
  H  H228  1  0.01588773  0.57427302  0.33075581  1
  C  C229  1  0.06805713  0.59550676  0.25455034  1
  O  O230  1  0.10447823  0.43437800  0.24014507  1
  C  C231  1  0.11449096  0.52290229  0.20411882  1
  H  H232  1  0.05931636  0.63762052  0.25832070  1
  C  C233  1  0.10413756  0.57722772  0.20904841  1
  H  H234  1  0.07899489  0.41235137  0.26460263  1
  H  H235  1  0.14169645  0.50806383  0.16871427  1
  O  O236  1  0.12976009  0.61207625  0.17014737  1
  H  H237  1  0.15895857  0.59395655  0.14660984  1
  H  H238  1  -0.03676165  0.52230587  0.44763770  1
  C  C239  1  -0.05507850  0.49457907  0.41559687  1
  C  C240  1  -0.04350708  0.44027056  0.42029995  1
  C  C241  1  -0.09071639  0.51306180  0.36978542  1
  H  H242  1  -0.01589049  0.42573367  0.45576328  1
  C  C243  1  -0.06806054  0.40449676  0.37955886  1
  O  O244  1  -0.10447534  0.56562363  0.36513447  1
  C  C245  1  -0.11449038  0.47709773  0.32911817  1
  H  H246  1  -0.05931991  0.36237891  0.38333631  1
  C  C247  1  -0.10413647  0.42276701  0.33405718  1
  H  H248  1  -0.07899414  0.58765059  0.38959117  1
  H  H249  1  -0.14169296  0.49193057  0.29371268  1
  O  O250  1  -0.12976214  0.38791990  0.29515769  1
  H  H251  1  -0.15895855  0.40603695  0.27161886  1
  H  H252  1  0.12990508  0.72769375  0.44763794  1
  C  C253  1  0.11158796  0.75542225  0.41559622  1
  C  C254  1  0.12315978  0.80972811  0.42030054  1
  C  C255  1  0.07595037  0.73693625  0.36978601  1
  H  H256  1  0.15077619  0.82426623  0.45576322  1
  C  C257  1  0.09860614  0.84550489  0.37955859  1
  O  O258  1  0.06219099  0.68437740  0.36513412  1
  C  C259  1  0.05217604  0.77290411  0.32911749  1
  H  H260  1  0.10734685  0.88762030  0.38333639  1
  C  C261  1  0.06253031  0.82723095  0.33405770  1
  H  H262  1  0.08767331  0.66234912  0.38959168  1
  H  H263  1  0.02497370  0.75806933  0.29371268  1
  O  O264  1  0.03690420  0.86208090  0.29515729  1
  H  H265  1  0.00770847  0.84396328  0.27161886  1
  H  H266  1  0.20342877  0.77229941  0.32264123  1
  C  C267  1  0.22174490  0.74457332  0.29059771  1
  C  C268  1  0.21017288  0.69026827  0.29529340  1
  C  C269  1  0.25738529  0.76306366  0.24478868  1
  H  H270  1  0.18255468  0.67572693  0.33075513  1
  C  C271  1  0.23472475  0.65449371  0.25454907  1
  O  O272  1  0.27114539  0.81562162  0.24014496  1
  C  C273  1  0.28115808  0.72709780  0.20411826  1
  H  H274  1  0.22598311  0.61237891  0.25832065  1
  C  C275  1  0.27080332  0.67277190  0.20904953  1
  H  H276  1  0.24566139  0.83764876  0.26460242  1
  H  H277  1  0.30836303  0.74193607  0.16871471  1
  O  O278  1  0.29642731  0.63792398  0.17014649  1
  H  H279  1  0.32562507  0.65604330  0.14661019  1
  H  H280  1  0.03676225  0.47770083  0.57264078  1
  C  C281  1  0.05507793  0.50542516  0.54059828  1
  C  C282  1  0.04350626  0.55973296  0.54529300  1
  C  C283  1  0.09071889  0.48693756  0.49478815  1
  H  H284  1  0.01588799  0.57427288  0.58075511  1
  C  C285  1  0.06805782  0.59550544  0.50454953  1
  O  O286  1  0.10447844  0.43437767  0.49014551  1
  C  C287  1  0.11449095  0.52290153  0.45411904  1
  H  H288  1  0.05931662  0.63762137  0.50832082  1
  C  C289  1  0.10413695  0.57722871  0.45904900  1
  H  H290  1  0.07899507  0.41235133  0.51460202  1
  H  H291  1  0.14169646  0.50806397  0.41871446  1
  O  O292  1  0.12976024  0.61207587  0.42014682  1
  H  H293  1  0.15895858  0.59395669  0.39661005  1
  H  H294  1  -0.03676182  0.52230539  0.69763695  1
  C  C295  1  -0.05507771  0.49458034  0.66559823  1
  C  C296  1  -0.04350797  0.44026934  0.67029890  1
  C  C297  1  -0.09071710  0.51306072  0.61978415  1
  H  H298  1  -0.01589012  0.42573372  0.70576350  1
  C  C299  1  -0.06805976  0.40449738  0.62956024  1
  O  O300  1  -0.10447497  0.56562448  0.61513540  1
  C  C301  1  -0.11448940  0.47709816  0.57911937  1
  H  H302  1  -0.05931990  0.36237877  0.63333629  1
  C  C303  1  -0.10413714  0.42276672  0.58405576  1
  H  H304  1  -0.07899465  0.58765045  0.63959050  1
  H  H305  1  -0.14169344  0.49193067  0.54371241  1
  O  O306  1  -0.12976127  0.38791978  0.54515824  1
  H  H307  1  -0.15895889  0.40603723  0.52161878  1
  H  H308  1  0.12990491  0.72769451  0.69763711  1
  C  C309  1  0.11158770  0.75541847  0.66559672  1
  C  C310  1  0.12315998  0.80973151  0.67030025  1
  C  C311  1  0.07595106  0.73693989  0.61978615  1
  H  H312  1  0.15077595  0.82426585  0.70576291  1
  C  C313  1  0.09860606  0.84550215  0.62955900  1
  O  O314  1  0.06219153  0.68437527  0.61513481  1
  C  C315  1  0.05217563  0.77290174  0.57911747  1
  H  H316  1  0.10734683  0.88762125  0.63333656  1
  C  C317  1  0.06253074  0.82723332  0.58405771  1
  H  H318  1  0.08767258  0.66234969  0.63959126  1
  H  H319  1  0.02497375  0.75806975  0.54371312  1
  O  O320  1  0.03690404  0.86208014  0.54515716  1
  H  H321  1  0.00770852  0.84396319  0.52161905  1
  H  H322  1  0.20342868  0.77229941  0.57264132  1
  C  C323  1  0.22174591  0.74457474  0.54059672  1
  C  C324  1  0.21017216  0.69026666  0.54529419  1
  C  C325  1  0.25738416  0.76306239  0.49478999  1
  H  H326  1  0.18255496  0.67572721  0.58075457  1
  C  C327  1  0.23472515  0.65449489  0.50454878  1
  O  O328  1  0.27114539  0.81562247  0.49014491  1
  C  C329  1  0.28115893  0.72709856  0.45411725  1
  H  H330  1  0.22598294  0.61237834  0.50832082  1
  C  C331  1  0.27080269  0.67277114  0.45905029  1
  H  H332  1  0.24566171  0.83764867  0.51460223  1
  H  H333  1  0.30836268  0.74193584  0.41871527  1
  O  O334  1  0.29642806  0.63792441  0.42014609  1
  H  H335  1  0.32562474  0.65604292  0.39661053  1
  H  H336  1  0.03676199  0.47770049  0.82264133  1
  C  C337  1  0.05507871  0.50542573  0.79059715  1
  C  C338  1  0.04350609  0.55973249  0.79529339  1
  C  C339  1  0.09071792  0.48693841  0.74478929  1
  H  H340  1  0.01588814  0.57427297  0.83075523  1
  C  C341  1  0.06805830  0.59550515  0.75454873  1
  O  O342  1  0.10447839  0.43437705  0.74014503  1
  C  C343  1  0.11449242  0.52290012  0.70411764  1
  H  H344  1  0.05931631  0.63762147  0.75832072  1
  C  C345  1  0.10413608  0.57722985  0.70904992  1
  H  H346  1  0.07899512  0.41235166  0.76460240  1
  H  H347  1  0.14169594  0.50806430  0.66871528  1
  O  O348  1  0.12976084  0.61207535  0.67014672  1
  H  H349  1  0.15895825  0.59395660  0.64661008  1
  H  H350  1  -0.03676188  0.52230544  0.94763695  1
  C  C351  1  -0.05507681  0.49457902  0.91559916  1
  C  C352  1  -0.04350903  0.44027075  0.92029745  1
  C  C353  1  -0.09071819  0.51306204  0.86978308  1
  H  H354  1  -0.01588964  0.42573329  0.95576421  1
  C  C355  1  -0.06805845  0.40449624  0.87956171  1
  O  O356  1  -0.10447480  0.56562373  0.86513595  1
  C  C357  1  -0.11448803  0.47709650  0.82912105  1
  H  H358  1  -0.05932020  0.36237934  0.88333624  1
  C  C359  1  -0.10413881  0.42276805  0.83405414  1
  H  H360  1  -0.07899459  0.58765050  0.88959040  1
  H  H361  1  -0.14169370  0.49193104  0.79371155  1
  O  O362  1  -0.12976053  0.38791924  0.79515911  1
  H  H363  1  -0.15895934  0.40603756  0.77161814  1
  H  H364  1  0.12990581  0.72769323  0.94763836  1
  C  C365  1  0.11158665  0.75542362  0.91559364  1
  C  C366  1  0.12316072  0.80972726  0.92030199  1
  C  C367  1  0.07595188  0.73693465  0.86978832  1
  H  H368  1  0.15077539  0.82426614  0.95576291  1
  C  C369  1  0.09860484  0.84550565  0.87955668  1
  O  O370  1  0.06219004  0.68437858  0.86513292  1
  C  C371  1  0.05217434  0.77290571  0.82911521  1
  H  H372  1  0.10734710  0.88762021  0.88333629  1
  C  C373  1  0.06253162  0.82722935  0.83406009  1
  H  H374  1  0.08767389  0.66234898  0.88959240  1
  H  H375  1  0.02497438  0.75806928  0.79371291  1
  O  O376  1  0.03690294  0.86208137  0.79515587  1
  H  H377  1  0.00770892  0.84396347  0.77161933  1
  H  H378  1  0.20342865  0.77229969  0.82264176  1
  C  C379  1  0.22174698  0.74457478  0.79059499  1
  C  C380  1  0.21017113  0.69026647  0.79529517  1
  C  C381  1  0.25738303  0.76306168  0.74479146  1
  H  H382  1  0.18255545  0.67572749  0.83075436  1
  C  C383  1  0.23472641  0.65449579  0.75454700  1
  O  O384  1  0.27114569  0.81562294  0.74014460  1
  C  C385  1  0.28116023  0.72709978  0.70411569  1
  H  H386  1  0.22598311  0.61237791  0.75832115  1
  C  C387  1  0.27080104  0.67276991  0.70905198  1
  H  H388  1  0.24566149  0.83764857  0.76460240  1
  H  H389  1  0.30836208  0.74193536  0.66871577  1
  O  O390  1  0.29642868  0.63792502  0.67014516  1
  H  H391  1  0.32562414  0.65604245  0.64661078  1
  H  H392  1  0.03676227  0.47770007  1.07264134  1
  C  C393  1  0.05507880  0.50542673  1.04059716  1
  C  C394  1  0.04350643  0.55973173  1.04529350  1
  C  C395  1  0.09071819  0.48693624  0.99478908  1
  H  H396  1  0.01588789  0.57427278  1.08075529  1
  C  C397  1  0.06805825  0.59550610  1.00454895  1
  O  O398  1  0.10447852  0.43437833  0.99014477  1
  C  C399  1  0.11449170  0.52290205  0.95411765  1
  H  H400  1  0.05931602  0.63762109  1.00832078  1
  C  C401  1  0.10413614  0.57722824  0.95905020  1
  H  H402  1  0.07899459  0.41235095  1.01460268  1
  H  H403  1  0.14169631  0.50806411  0.91871502  1
  O  O404  1  0.12976156  0.61207582  0.92014614  1
  H  H405  1  0.15895790  0.59395716  0.89661074  1
  H  H406  1  -0.03676148  0.52230615  1.19763707  1
  C  C407  1  -0.05507627  0.49457656  1.16559949  1
  C  C408  1  -0.04350940  0.44027331  1.17029767  1
  C  C409  1  -0.09071900  0.51306502  1.11978233  1
  H  H410  1  -0.01588976  0.42573310  1.20576454  1
  C  C411  1  -0.06805790  0.40449317  1.12956188  1
  O  O412  1  -0.10447453  0.56562203  1.11513509  1
  C  C413  1  -0.11448728  0.47709419  1.07912149  1
  H  H414  1  -0.05932009  0.36238083  1.13333598  1
  C  C415  1  -0.10413967  0.42277051  1.08405372  1
  H  H416  1  -0.07899403  0.58765092  1.13959095  1
  H  H417  1  -0.14169432  0.49193156  1.04371118  1
  O  O418  1  -0.12976072  0.38791839  1.04515917  1
  H  H419  1  -0.15895945  0.40603733  1.02161810  1
  H  H420  1  0.12990523  0.72769394  1.19763783  1
  C  C421  1  0.11158706  0.75542069  1.16559538  1
  C  C422  1  0.12316070  0.80973019  1.17030145  1
  C  C423  1  0.07595137  0.73693786  1.11978709  1
  H  H424  1  0.15077556  0.82426595  1.20576270  1
  C  C425  1  0.09860524  0.84550271  1.12955777  1
  O  O426  1  0.06219080  0.68437683  1.11513433  1
  C  C427  1  0.05217511  0.77290240  1.07911684  1
  H  H428  1  0.10734700  0.88762115  1.13333652  1
  C  C429  1  0.06253138  0.82723303  1.08405858  1
  H  H430  1  0.08767341  0.66234922  1.13959181  1
  H  H431  1  0.02497404  0.75806971  1.04371335  1
  O  O432  1  0.03690394  0.86208005  1.04515668  1
  H  H433  1  0.00770877  0.84396357  1.02161918  1
  H  H434  1  0.20342885  0.77229960  1.07264199  1
  C  C435  1  0.22174696  0.74457488  1.04059511  1
  C  C436  1  0.21017188  0.69026680  1.04529437  1
  C  C437  1  0.25738266  0.76306059  0.99479168  1
  H  H438  1  0.18255541  0.67572726  1.08075507  1
  C  C439  1  0.23472641  0.65449649  1.00454722  1
  O  O440  1  0.27114509  0.81562379  0.99014433  1
  C  C441  1  0.28116151  0.72710111  0.95411462  1
  H  H442  1  0.22598259  0.61237787  1.00832078  1
  C  C443  1  0.27080084  0.67276877  0.95905258  1
  H  H444  1  0.24566156  0.83764791  1.01460279  1
  H  H445  1  0.30836148  0.74193527  0.91871621  1
  O  O446  1  0.29642931  0.63792535  0.92014560  1
  H  H447  1  0.32562384  0.65604222  0.89661090  1
  H  H448  1  0.37009539  -0.02229968  0.32264153  1
  C  C449  1  0.38841281  0.00542589  0.29059614  1
  C  C450  1  0.37683901  0.05973263  0.29529402  1
  C  C451  1  0.42405046  -0.01306238  0.24479044  1
  H  H452  1  0.34922167  0.07427283  0.33075486  1
  C  C453  1  0.40139218  0.09550534  0.25454828  1
  O  O454  1  0.43781202  -0.06562259  0.24014450  1
  C  C455  1  0.44782641  0.02290096  0.20411625  1
  H  H456  1  0.39264974  0.13762147  0.25832081  1
  C  C457  1  0.43746894  0.07722919  0.20905080  1
  H  H458  1  0.41232811  -0.08764852  0.26460271  1
  H  H459  1  0.47502899  0.00806440  0.16871542  1
  O  O460  1  0.46309483  0.11207544  0.17014579  1
  H  H461  1  0.49229129  0.09395700  0.14661041  1
  H  H462  1  0.29657182  0.02230612  0.44763786  1
  C  C463  1  0.27825435  -0.00542188  0.41559585  1
  C  C464  1  0.28982620  -0.05972850  0.42030000  1
  C  C465  1  0.24261757  0.01306297  0.36978650  1
  H  H466  1  0.31744274  -0.07426628  0.45576338  1
  C  C467  1  0.26527285  -0.09550444  0.37955875  1
  O  O468  1  0.22885775  0.06562310  0.36513410  1
  C  C469  1  0.21884223  -0.02290365  0.32911709  1
  H  H470  1  0.27401359  -0.13762047  0.38333625  1
  C  C471  1  0.22919694  -0.07723146  0.33405775  1
  H  H472  1  0.25434002  0.08765066  0.38959174  1
  H  H473  1  0.19164053  -0.00806938  0.29371284  1
  O  O474  1  0.20357067  -0.11208063  0.29515726  1
  H  H475  1  0.17437514  -0.09396329  0.27161891  1
  H  H476  1  0.46323877  0.22769364  0.44763794  1
  C  C477  1  0.44492095  0.25542292  0.41559555  1
  C  C478  1  0.45649295  0.30972762  0.42030054  1
  C  C479  1  0.40928413  0.23693598  0.36978661  1
  H  H480  1  0.48410927  0.32426638  0.45576333  1
  C  C481  1  0.43193930  0.34550544  0.37955829  1
  O  O482  1  0.39552422  0.18437766  0.36513361  1
  C  C483  1  0.38550880  0.27290466  0.32911685  1
  H  H484  1  0.44068041  0.38762003  0.38333609  1
  C  C485  1  0.39586376  0.32723035  0.33405818  1
  H  H486  1  0.42100687  0.16234920  0.38959201  1
  H  H487  1  0.35830705  0.25806927  0.29371273  1
  O  O488  1  0.37023710  0.36208108  0.29515693  1
  H  H489  1  0.34104177  0.34396310  0.27161902  1
  H  H490  1  0.53676204  0.27229977  0.32264148  1
  C  C491  1  0.55507886  0.24457382  0.29059703  1
  C  C492  1  0.54350581  0.19026779  0.29529402  1
  C  C493  1  0.59071799  0.26306280  0.24478928  1
  H  H494  1  0.51588824  0.17572720  0.33075511  1
  C  C495  1  0.56805831  0.15449443  0.25454869  1
  O  O496  1  0.60447854  0.31562224  0.24014499  1
  C  C497  1  0.61449198  0.22709861  0.20411781  1
  H  H498  1  0.55931634  0.11237872  0.25832089  1
  C  C499  1  0.60413627  0.17277100  0.20904999  1
  H  H500  1  0.57899489  0.33764859  0.26460247  1
  H  H501  1  0.64169606  0.24193578  0.16871492  1
  O  O502  1  0.62976091  0.13792423  0.17014670  1
  H  H503  1  0.65895822  0.15604304  0.14661013  1
  H  H504  1  0.37009551  -0.02229946  0.57264149  1
  C  C505  1  0.38841183  0.00542588  0.54059753  1
  C  C506  1  0.37683941  0.05973247  0.54529327  1
  C  C507  1  0.42405146  -0.01306242  0.49478912  1
  H  H508  1  0.34922134  0.07427296  0.58075528  1
  C  C509  1  0.40139136  0.09550547  0.50454915  1
  O  O510  1  0.43781192  -0.06562237  0.49014502  1
  C  C511  1  0.44782521  0.02290114  0.45411779  1
  H  H512  1  0.39264967  0.13762136  0.50832082  1
  C  C513  1  0.43746954  0.07722910  0.45905002  1
  H  H514  1  0.41232847  -0.08764864  0.51460218  1
  H  H515  1  0.47502924  0.00806422  0.41871519  1
  O  O516  1  0.46309438  0.11207556  0.42014647  1
  H  H517  1  0.49229144  0.09395699  0.39661037  1
  H  H518  1  0.29657242  0.02230655  0.69763851  1
  C  C519  1  0.27825242  -0.00542155  0.66559320  1
  C  C520  1  0.28982810  -0.05972931  0.67030268  1
  C  C521  1  0.24261985  0.01306267  0.61978961  1
  H  H522  1  0.31744204  -0.07426595  0.70576231  1
  C  C523  1  0.26527077  -0.09550337  0.62955603  1
  O  O524  1  0.22885667  0.06562302  0.61513302  1
  C  C525  1  0.21883970  -0.02290279  0.57911363  1
  H  H526  1  0.27401391  -0.13762109  0.63333639  1
  C  C527  1  0.22919972  -0.07723221  0.58406095  1
  H  H528  1  0.25434032  0.08765090  0.63959229  1
  H  H529  1  0.19164134  -0.00806998  0.54371425  1
  O  O530  1  0.20356876  -0.11207998  0.54515521  1
  H  H531  1  0.17437615  -0.09396393  0.52161992  1
  H  H532  1  0.46323837  0.22769423  0.69763727  1
  C  C533  1  0.44492245  0.25542205  0.66559775  1
  C  C534  1  0.45649200  0.30972833  0.67029906  1
  C  C535  1  0.40928257  0.23693622  0.61978426  1
  H  H536  1  0.48410977  0.32426648  0.70576361  1
  C  C537  1  0.43194055  0.34550526  0.62956003  1
  O  O538  1  0.39552487  0.18437760  0.61513443  1
  C  C539  1  0.38551066  0.27290452  0.57911937  1
  H  H540  1  0.44068016  0.38762008  0.63333602  1
  C  C541  1  0.39586211  0.32723073  0.58405603  1
  H  H542  1  0.42100632  0.16234907  0.63959164  1
  H  H543  1  0.35830643  0.25806894  0.54371198  1
  O  O544  1  0.37023828  0.36208112  0.54515829  1
  H  H545  1  0.34104111  0.34396256  0.52161846  1
  H  H546  1  0.53676184  0.27229987  0.57264197  1
  C  C547  1  0.55508006  0.24457354  0.54059498  1
  C  C548  1  0.54350476  0.19026795  0.54529506  1
  C  C549  1  0.59071634  0.26306332  0.49479177  1
  H  H550  1  0.51588884  0.17572732  0.58075468  1
  C  C551  1  0.56805926  0.15449419  0.50454704  1
  O  O552  1  0.60447920  0.31562189  0.49014410  1
  C  C553  1  0.61449399  0.22709819  0.45411520  1
  H  H554  1  0.55931619  0.11237878  0.50832082  1
  C  C555  1  0.60413482  0.17277166  0.45905213  1
  H  H556  1  0.57899434  0.33764868  0.51460304  1
  H  H557  1  0.64169531  0.24193561  0.41871571  1
  O  O558  1  0.62976216  0.13792433  0.42014528  1
  H  H559  1  0.65895752  0.15604268  0.39661070  1
  H  H560  1  0.37009546  -0.02229951  0.82264106  1
  C  C561  1  0.38841186  0.00542548  0.79059764  1
  C  C562  1  0.37683941  0.05973286  0.79529344  1
  C  C563  1  0.42405166  -0.01306215  0.74478886  1
  H  H564  1  0.34922142  0.07427284  0.83075518  1
  C  C565  1  0.40139148  0.09550524  0.75454905  1
  O  O566  1  0.43781147  -0.06562276  0.74014508  1
  C  C567  1  0.44782501  0.02290088  0.70411802  1
  H  H568  1  0.39264959  0.13762151  0.75832082  1
  C  C569  1  0.43746960  0.07722942  0.70904960  1
  H  H570  1  0.41232852  -0.08764856  0.76460240  1
  H  H571  1  0.47502959  0.00806426  0.66871496  1
  O  O572  1  0.46309438  0.11207554  0.67014656  1
  H  H573  1  0.49229159  0.09395678  0.64661030  1
  H  H574  1  0.29657200  0.02230608  0.94763793  1
  C  C575  1  0.27825458  -0.00542246  0.91559602  1
  C  C576  1  0.28982650  -0.05972812  0.92030080  1
  C  C577  1  0.24261712  0.01306341  0.86978600  1
  H  H578  1  0.31744241  -0.07426639  0.95576324  1
  C  C579  1  0.26527252  -0.09550463  0.87955825  1
  O  O580  1  0.22885785  0.06562265  0.86513400  1
  C  C581  1  0.21884253  -0.02290363  0.82911764  1
  H  H582  1  0.27401366  -0.13762043  0.88333613  1
  C  C583  1  0.22919704  -0.07723152  0.83405777  1
  H  H584  1  0.25433972  0.08765078  0.88959170  1
  H  H585  1  0.19164035  -0.00806918  0.79371274  1
  O  O586  1  0.20357090  -0.11208061  0.79515749  1
  H  H587  1  0.17437494  -0.09396296  0.77161868  1
  H  H588  1  0.46323877  0.22769360  0.94763825  1
  C  C589  1  0.44492005  0.25542198  0.91559429  1
  C  C590  1  0.45649355  0.30972866  0.92030101  1
  C  C591  1  0.40928545  0.23693686  0.86978827  1
  H  H592  1  0.48410902  0.32426619  0.95576324  1
  C  C593  1  0.43193870  0.34550431  0.87955771  1
  O  O594  1  0.39552355  0.18437720  0.86513368  1
  C  C595  1  0.38550773  0.27290395  0.82911532  1
  H  H596  1  0.44067996  0.38762055  0.88333640  1
  C  C597  1  0.39586494  0.32723097  0.83405939  1
  H  H598  1  0.42100682  0.16234920  0.88959181  1
  H  H599  1  0.35830771  0.25806967  0.79371318  1
  O  O600  1  0.37023630  0.36208056  0.79515581  1
  H  H601  1  0.34104239  0.34396372  0.77161960  1
  H  H602  1  0.53676204  0.27229954  0.82264133  1
  C  C603  1  0.55507886  0.24457461  0.79059694  1
  C  C604  1  0.54350561  0.19026698  0.79529398  1
  C  C605  1  0.59071764  0.26306174  0.74478951  1
  H  H606  1  0.51588824  0.17572723  0.83075496  1
  C  C607  1  0.56805881  0.15449536  0.75454851  1
  O  O608  1  0.60447849  0.31562284  0.74014508  1
  C  C609  1  0.61449223  0.22709968  0.70411726  1
  H  H610  1  0.55931639  0.11237816  0.75832104  1
  C  C611  1  0.60413552  0.17277015  0.70905046  1
  H  H612  1  0.57899504  0.33764866  0.76460229  1
  H  H613  1  0.64169581  0.24193561  0.66871534  1
  O  O614  1  0.62976121  0.13792469  0.67014629  1
  H  H615  1  0.65895802  0.15604294  0.64661051  1
  H  H616  1  0.37009584  -0.02229912  1.07264058  1
  C  C617  1  0.38841010  0.00542606  1.04060008  1
  C  C618  1  0.37684081  0.05973217  1.04529188  1
  C  C619  1  0.42405367  -0.01306251  0.99478606  1
  H  H620  1  0.34922079  0.07427314  1.08075572  1
  C  C621  1  0.40139015  0.09550563  1.00455112  1
  O  O622  1  0.43781092  -0.06562239  0.99014585  1
  C  C623  1  0.44782265  0.02290137  0.95412122  1
  H  H624  1  0.39264999  0.13762123  1.00832067  1
  C  C625  1  0.43747185  0.07722956  0.95904685  1
  H  H626  1  0.41232859  -0.08764863  1.01460192  1
  H  H627  1  0.47503044  0.00806386  0.91871405  1
  O  O628  1  0.46309243  0.11207570  0.92014830  1
  H  H629  1  0.49229265  0.09395631  0.89660955  1
  H  H630  1  0.29657212  0.02230642  1.19763858  1
  C  C631  1  0.27825290  -0.00542217  1.16559354  1
  C  C632  1  0.28982805  -0.05972850  1.17030232  1
  C  C633  1  0.24261940  0.01306314  1.11978914  1
  H  H634  1  0.31744181  -0.07426606  1.20576270  1
  C  C635  1  0.26527087  -0.09550394  1.12955593  1
  O  O636  1  0.22885674  0.06562266  1.11513314  1
  C  C637  1  0.21883970  -0.02290294  1.07911392  1
  H  H638  1  0.27401386  -0.13762077  1.13333641  1
  C  C639  1  0.22919942  -0.07723185  1.08406118  1
  H  H640  1  0.25434065  0.08765080  1.13959246  1
  H  H641  1  0.19164165  -0.00806986  1.04371410  1
  O  O642  1  0.20356892  -0.11208028  1.04515560  1
  H  H643  1  0.17437594  -0.09396394  1.02161950  1
  H  H644  1  0.46323842  0.22769414  1.19763739  1
  C  C645  1  0.44492165  0.25542096  1.16559711  1
  C  C646  1  0.45649250  0.30972939  1.17029972  1
  C  C647  1  0.40928370  0.23693811  1.11978579  1
  H  H648  1  0.48410997  0.32426629  1.20576324  1
  C  C649  1  0.43193960  0.34550334  1.12955928  1
  O  O650  1  0.39552467  0.18437621  1.11513498  1
  C  C651  1  0.38550923  0.27290237  1.07911749  1
  H  H652  1  0.44068016  0.38762100  1.13333652  1
  C  C653  1  0.39586371  0.32723281  1.08405718  1
  H  H654  1  0.42100607  0.16234942  1.13959106  1
  H  H655  1  0.35830705  0.25806965  1.04371324  1
  O  O656  1  0.37023810  0.36208042  1.04515755  1
  H  H657  1  0.34104139  0.34396318  1.02161885  1
  H  H658  1  0.53676214  0.27229932  1.07264069  1
  C  C659  1  0.55507841  0.24457557  1.04059803  1
  C  C660  1  0.54350646  0.19026620  1.04529264  1
  C  C661  1  0.59071824  0.26306084  0.99478854  1
  H  H662  1  0.51588784  0.17572721  1.08075529  1
  C  C663  1  0.56805776  0.15449584  1.00454993  1
  O  O664  1  0.60447804  0.31562352  0.99014542  1
  C  C665  1  0.61449153  0.22710048  0.95411830  1
  H  H666  1  0.55931644  0.11237811  1.00832110  1
  C  C667  1  0.60413662  0.17276920  0.95904890  1
  H  H668  1  0.57899554  0.33764847  1.01460181  1
  H  H669  1  0.64169611  0.24193568  0.91871513  1
  O  O670  1  0.62976036  0.13792479  0.92014711  1
  H  H671  1  0.65895842  0.15604298  0.89661014  1
  H  H672  1  0.37009569  0.47770054  0.32264118  1
  C  C673  1  0.38841178  0.50542545  0.29059776  1
  C  C674  1  0.37683994  0.55973277  0.29529283  1
  C  C675  1  0.42405166  0.48693798  0.24478868  1
  H  H676  1  0.34922129  0.57427293  0.33075535  1
  C  C677  1  0.40139108  0.59550530  0.25454974  1
  O  O678  1  0.43781152  0.43437719  0.24014515  1
  C  C679  1  0.44782481  0.52290111  0.20411827  1
  H  H680  1  0.39264967  0.63762128  0.25832070  1
  C  C681  1  0.43747015  0.57722904  0.20904914  1
  H  H682  1  0.41232852  0.41235147  0.26460220  1
  H  H683  1  0.47502959  0.50806411  0.16871479  1
  O  O684  1  0.46309408  0.61207563  0.17014676  1
  H  H685  1  0.49229159  0.59395669  0.14661015  1
  H  H686  1  0.29657167  0.52230568  0.44763716  1
  C  C687  1  0.27825515  0.49457968  0.41559733  1
  C  C688  1  0.28982582  0.44027004  0.42029935  1
  C  C689  1  0.24261662  0.51306152  0.36978477  1
  H  H690  1  0.31744301  0.42573376  0.45576333  1
  C  C691  1  0.26527322  0.40449704  0.37955951  1
  O  O692  1  0.22885817  0.56562387  0.36513469  1
  C  C693  1  0.21884340  0.47709759  0.32911874  1
  H  H694  1  0.27401356  0.36237893  0.38333633  1
  C  C695  1  0.22919636  0.42276720  0.33405654  1
  H  H696  1  0.25433929  0.58765054  0.38959101  1
  H  H697  1  0.19164011  0.49193062  0.29371243  1
  O  O698  1  0.20357161  0.38791966  0.29515802  1
  H  H699  1  0.17437451  0.40603714  0.27161867  1
  H  H700  1  0.46323898  0.72769332  0.44763824  1
  C  C701  1  0.44492135  0.75542443  0.41559555  1
  C  C702  1  0.45649305  0.80972631  0.42030087  1
  C  C703  1  0.40928378  0.73693394  0.36978633  1
  H  H704  1  0.48410932  0.82426651  0.45576333  1
  C  C705  1  0.43193950  0.84550687  0.37955829  1
  O  O706  1  0.39552402  0.68437891  0.36513337  1
  C  C707  1  0.38550930  0.77290614  0.32911733  1
  H  H708  1  0.44068026  0.88761945  0.38333601  1
  C  C709  1  0.39586344  0.82722897  0.33405818  1
  H  H710  1  0.42100722  0.66234870  0.38959239  1
  H  H711  1  0.35830693  0.75806905  0.29371265  1
  O  O712  1  0.37023717  0.86208147  0.29515693  1
  H  H713  1  0.34104174  0.84396309  0.27161889  1
  H  H714  1  0.53676214  0.77229941  0.32264137  1
  C  C715  1  0.55507816  0.74457374  0.29059784  1
  C  C716  1  0.54350656  0.69026770  0.29529307  1
  C  C717  1  0.59071844  0.76306248  0.24478855  1
  H  H718  1  0.51588794  0.67572688  0.33075543  1
  C  C719  1  0.56805796  0.65449446  0.25454963  1
  O  O720  1  0.60447814  0.81562247  0.24014502  1
  C  C721  1  0.61449138  0.72709874  0.20411845  1
  H  H722  1  0.55931649  0.61237876  0.25832073  1
  C  C723  1  0.60413682  0.67277104  0.20904922  1
  H  H724  1  0.57899529  0.83764839  0.26460214  1
  H  H725  1  0.64169606  0.74193579  0.16871482  1
  O  O726  1  0.62976081  0.63792441  0.17014667  1
  H  H727  1  0.65895822  0.65604321  0.14661013  1
  H  H728  1  0.37009539  0.47770035  0.57264132  1
  C  C729  1  0.38841131  0.50542658  0.54059801  1
  C  C730  1  0.37683986  0.55973168  0.54529305  1
  C  C731  1  0.42405221  0.48693671  0.49478842  1
  H  H732  1  0.34922116  0.57427297  0.58075555  1
  C  C733  1  0.40139091  0.59550653  0.50454975  1
  O  O734  1  0.43781162  0.43437795  0.49014524  1
  C  C735  1  0.44782441  0.52290224  0.45411888  1
  H  H736  1  0.39264974  0.63762081  0.50832076  1
  C  C737  1  0.43747040  0.57722791  0.45904900  1
  H  H738  1  0.41232836  0.41235137  0.51460229  1
  H  H739  1  0.47502979  0.50806392  0.41871454  1
  O  O740  1  0.46309408  0.61207592  0.42014682  1
  H  H741  1  0.49229164  0.59395660  0.39661029  1
  H  H742  1  0.29657172  0.52230591  0.69763743  1
  C  C743  1  0.27825498  0.49457864  0.66559688  1
  C  C744  1  0.28982584  0.44027104  0.67029976  1
  C  C745  1  0.24261697  0.51306228  0.61978529  1
  H  H746  1  0.31744301  0.42573367  0.70576334  1
  C  C747  1  0.26527302  0.40449605  0.62955922  1
  O  O748  1  0.22885807  0.56562344  0.61513432  1
  C  C749  1  0.21884300  0.47709702  0.57911818  1
  H  H750  1  0.27401346  0.36237917  0.63333629  1
  C  C751  1  0.22919654  0.42276767  0.58405695  1
  H  H752  1  0.25433967  0.58765078  0.63959142  1
  H  H753  1  0.19164013  0.49193067  0.54371274  1
  O  O754  1  0.20357120  0.38791943  0.54515781  1
  H  H755  1  0.17437481  0.40603681  0.52161868  1
  H  H756  1  0.46323797  0.72769451  0.69763754  1
  C  C757  1  0.44492125  0.75541937  0.66559688  1
  C  C758  1  0.45649305  0.80973104  0.67029960  1
  C  C759  1  0.40928405  0.73693989  0.61978556  1
  H  H760  1  0.48410947  0.82426604  0.70576328  1
  C  C761  1  0.43193940  0.84550120  0.62955878  1
  O  O762  1  0.39552520  0.68437480  0.61513524  1
  C  C763  1  0.38550905  0.77290051  0.57911780  1
  H  H764  1  0.44068026  0.88762182  0.63333634  1
  C  C765  1  0.39586394  0.82723511  0.58405738  1
  H  H766  1  0.42100567  0.66234974  0.63959077  1
  H  H767  1  0.35830738  0.75806971  0.54371328  1
  O  O768  1  0.37023742  0.86207939  0.54515775  1
  H  H769  1  0.34104197  0.84396357  0.52161905  1
  H  H770  1  0.53676194  0.77229993  0.57264165  1
  C  C771  1  0.55507871  0.74457218  0.54059709  1
  C  C772  1  0.54350656  0.69026935  0.54529343  1
  C  C773  1  0.59071819  0.76306414  0.49478934  1
  H  H774  1  0.51588789  0.67572683  0.58075544  1
  C  C775  1  0.56805801  0.65449276  0.50454894  1
  O  O776  1  0.60447869  0.81562162  0.49014481  1
  C  C777  1  0.61449178  0.72709756  0.45411763  1
  H  H778  1  0.55931639  0.61237928  0.50832060  1
  C  C779  1  0.60413642  0.67277246  0.45904997  1
  H  H780  1  0.57899454  0.83764886  0.51460267  1
  H  H781  1  0.64169616  0.74193612  0.41871500  1
  O  O782  1  0.62976071  0.63792403  0.42014626  1
  H  H783  1  0.65895842  0.65604335  0.39661021  1
  H  H784  1  0.37009526  0.47770049  0.82264160  1
  C  C785  1  0.38841364  0.50542441  0.79059521  1
  C  C786  1  0.37683781  0.55973405  0.79529495  1
  C  C787  1  0.42404926  0.48693898  0.74479178  1
  H  H788  1  0.34922202  0.57427245  0.83075436  1
  C  C789  1  0.40139313  0.59550369  0.75454694  1
  O  O790  1  0.43781242  0.43437672  0.74014449  1
  C  C791  1  0.44782766  0.52289964  0.70411488  1
  H  H792  1  0.39264964  0.63762222  0.75832104  1
  C  C793  1  0.43746734  0.57723027  0.70905263  1
  H  H794  1  0.41232799  0.41235151  0.76460262  1
  H  H795  1  0.47502838  0.50806468  0.66871631  1
  O  O796  1  0.46309554  0.61207526  0.67014521  1
  H  H797  1  0.49229074  0.59395750  0.64661078  1
  H  H798  1  0.29657172  0.52230624  0.94763782  1
  C  C799  1  0.27825380  0.49457807  0.91559516  1
  C  C800  1  0.28982660  0.44027151  0.92030047  1
  C  C801  1  0.24261790  0.51306280  0.86978702  1
  H  H802  1  0.31744256  0.42573386  0.95576313  1
  C  C803  1  0.26527227  0.40449572  0.87955787  1
  O  O804  1  0.22885767  0.56562307  0.86513373  1
  C  C805  1  0.21884150  0.47709674  0.82911640  1
  H  H806  1  0.27401371  0.36237948  0.88333624  1
  C  C807  1  0.22919756  0.42276795  0.83405858  1
  H  H808  1  0.25434032  0.58765054  0.88959197  1
  H  H809  1  0.19164068  0.49193033  0.79371296  1
  O  O810  1  0.20357002  0.38791959  0.79515684  1
  H  H811  1  0.17437546  0.40603638  0.77161917  1
  H  H812  1  0.46323827  0.72769451  0.94763695  1
  C  C813  1  0.44492321  0.75542149  0.91559905  1
  C  C814  1  0.45649150  0.80972896  0.92029809  1
  C  C815  1  0.40928162  0.73693777  0.86978270  1
  H  H816  1  0.48410997  0.82426661  0.95576410  1
  C  C817  1  0.43194085  0.84550366  0.87956079  1
  O  O818  1  0.39552550  0.68437688  0.86513449  1
  C  C819  1  0.38551111  0.77290226  0.82912078  1
  H  H820  1  0.44068026  0.88762059  0.88333586  1
  C  C821  1  0.39586146  0.82723332  0.83405485  1
  H  H822  1  0.42100582  0.66234950  0.88959148  1
  H  H823  1  0.35830623  0.75806909  0.79371193  1
  O  O824  1  0.37023913  0.86208033  0.79515976  1
  H  H825  1  0.34104086  0.84396215  0.77161776  1
  H  H826  1  0.53676214  0.77229955  0.82264128  1
  C  C827  1  0.55507816  0.74457313  0.79059764  1
  C  C828  1  0.54350646  0.69026841  0.79529306  1
  C  C829  1  0.59071884  0.76306348  0.74478832  1
  H  H830  1  0.51588804  0.67572688  0.83075534  1
  C  C831  1  0.56805786  0.65449366  0.75454932  1
  O  O832  1  0.60447834  0.81562209  0.74014508  1
  C  C833  1  0.61449123  0.72709818  0.70411851  1
  H  H834  1  0.55931649  0.61237895  0.75832055  1
  C  C835  1  0.60413697  0.67277180  0.70904911  1
  H  H836  1  0.57899504  0.83764857  0.76460240  1
  H  H837  1  0.64169621  0.74193617  0.66871447  1
  O  O838  1  0.62976051  0.63792412  0.67014683  1
  H  H839  1  0.65895842  0.65604340  0.64660987  1
  H  H840  1  0.37009544  0.47770078  1.07264112  1
  C  C841  1  0.38841121  0.50542483  1.04059835  1
  C  C842  1  0.37683979  0.55973357  1.04529285  1
  C  C843  1  0.42405171  0.48693879  0.99478822  1
  H  H844  1  0.34922089  0.57427307  1.08075507  1
  C  C845  1  0.40139101  0.59550463  1.00455003  1
  O  O846  1  0.43781147  0.43437667  0.99014585  1
  C  C847  1  0.44782416  0.52290040  0.95411884  1
  H  H848  1  0.39264982  0.63762189  1.00832088  1
  C  C849  1  0.43747020  0.57722990  0.95904868  1
  H  H850  1  0.41232929  0.41235147  1.01460127  1
  H  H851  1  0.47502969  0.50806425  0.91871502  1
  O  O852  1  0.46309363  0.61207535  0.92014733  1
  H  H853  1  0.49229215  0.59395655  0.89661020  1
  H  H854  1  0.29657117  0.52230544  1.19763707  1
  C  C855  1  0.27825690  0.49457869  1.16559992  1
  C  C856  1  0.28982364  0.44027113  1.17029680  1
  C  C857  1  0.24261449  0.51306204  1.11978222  1
  H  H858  1  0.31744392  0.42573324  1.20576454  1
  C  C859  1  0.26527540  0.40449577  1.12956231  1
  O  O860  1  0.22885945  0.56562392  1.11513552  1
  C  C861  1  0.21884541  0.47709693  1.07912160  1
  H  H862  1  0.27401336  0.36237960  1.13333598  1
  C  C863  1  0.22919406  0.42276776  1.08405350  1
  H  H864  1  0.25433867  0.58765016  1.13959095  1
  H  H865  1  0.19163923  0.49193100  1.04371162  1
  O  O866  1  0.20357313  0.38791914  1.04515982  1
  H  H867  1  0.17437402  0.40603780  1.02161788  1
  H  H868  1  0.46323812  0.72769446  1.19763750  1
  C  C869  1  0.44492065  0.75541975  1.16559571  1
  C  C870  1  0.45649355  0.80973075  1.17030048  1
  C  C871  1  0.40928465  0.73693900  1.11978644  1
  H  H872  1  0.48410891  0.82426595  1.20576281  1
  C  C873  1  0.43193890  0.84550205  1.12955820  1
  O  O874  1  0.39552475  0.68437612  1.11513401  1
  C  C875  1  0.38550853  0.77290188  1.07911695  1
  H  H876  1  0.44068051  0.88762134  1.13333619  1
  C  C877  1  0.39586417  0.82723313  1.08405815  1
  H  H878  1  0.42100632  0.66234974  1.13959192  1
  H  H879  1  0.35830733  0.75806961  1.04371291  1
  O  O880  1  0.37023707  0.86208024  1.04515766  1
  H  H881  1  0.34104182  0.84396309  1.02161874  1
  H  H882  1  0.53676304  0.77229874  1.07263982  1
  C  C883  1  0.55507656  0.74457615  1.04060106  1
  C  C884  1  0.54350767  0.69026590  1.04529091  1
  C  C885  1  0.59072089  0.76305993  0.99478487  1
  H  H886  1  0.51588734  0.67572730  1.08075583  1
  C  C887  1  0.56805646  0.65449640  1.00455176  1
  O  O888  1  0.60447704  0.81562398  0.99014693  1
  C  C889  1  0.61448918  0.72710106  0.95412165  1
  H  H890  1  0.55931669  0.61237796  1.00832110  1
  C  C891  1  0.60413858  0.67276840  0.95904609  1
  H  H892  1  0.57899569  0.83764810  1.01460138  1
  H  H893  1  0.64169701  0.74193579  0.91871405  1
  O  O894  1  0.62975836  0.63792441  0.92014906  1
  H  H895  1  0.65895947  0.65604349  0.89660912  1
  H  H896  1  0.70342882  -0.02229935  0.32264088  1
  C  C897  1  0.72174474  0.00542582  0.29059830  1
  C  C898  1  0.71017334  0.05973255  0.29529291  1
  C  C899  1  0.75738562  -0.01306227  0.24478806  1
  H  H900  1  0.68255432  0.07427298  0.33075519  1
  C  C901  1  0.73472458  0.09550534  0.25454958  1
  O  O902  1  0.77114482  -0.06562246  0.24014526  1
  C  C903  1  0.78115786  0.02290106  0.20411877  1
  H  H904  1  0.72598307  0.13762144  0.25832075  1
  C  C905  1  0.77080340  0.07722936  0.20904901  1
  H  H906  1  0.74566172  -0.08764853  0.26460223  1
  H  H907  1  0.80836324  0.00806416  0.16871482  1
  O  O908  1  0.79642694  0.11207581  0.17014690  1
  H  H909  1  0.82562520  0.09395660  0.14661008  1
  H  H910  1  0.62990490  0.02230589  0.44763729  1
  C  C911  1  0.61158883  -0.00542164  0.41559763  1
  C  C912  1  0.62315842  -0.05972855  0.42029884  1
  C  C913  1  0.57594950  0.01306273  0.36978452  1
  H  H914  1  0.65077659  -0.07426638  0.45576376  1
  C  C915  1  0.59860718  -0.09550434  0.37956007  1
  O  O916  1  0.56219200  0.06562339  0.36513469  1
  C  C917  1  0.55217686  -0.02290359  0.32911890  1
  H  H918  1  0.60734709  -0.13762037  0.38333609  1
  C  C919  1  0.56252906  -0.07723170  0.33405608  1
  H  H920  1  0.58767285  0.08765044  0.38959149  1
  H  H921  1  0.52497308  -0.00806924  0.29371235  1
  O  O922  1  0.53690488  -0.11208079  0.29515837  1
  H  H923  1  0.50770797  -0.09396283  0.27161861  1
  H  H924  1  0.79657158  0.22769412  0.44763780  1
  C  C925  1  0.77825476  0.25542108  0.41559674  1
  C  C926  1  0.78982605  0.30972935  0.42029989  1
  C  C927  1  0.74261708  0.23693801  0.36978547  1
  H  H928  1  0.81744282  0.32426629  0.45576333  1
  C  C929  1  0.76527285  0.34550358  0.37955905  1
  O  O930  1  0.72885828  0.18437642  0.36513426  1
  C  C931  1  0.71884293  0.27290293  0.32911806  1
  H  H932  1  0.77401367  0.38762084  0.38333617  1
  C  C933  1  0.72919674  0.32723222  0.33405732  1
  H  H934  1  0.75433958  0.16234945  0.38959139  1
  H  H935  1  0.69164016  0.25806934  0.29371270  1
  O  O936  1  0.70357100  0.36208053  0.29515766  1
  H  H937  1  0.67437479  0.34396287  0.27161870  1
  H  H938  1  0.87009559  0.27229944  0.32264113  1
  C  C939  1  0.88841131  0.24457375  0.29059820  1
  C  C940  1  0.87683997  0.19026789  0.29529248  1
  C  C941  1  0.92405210  0.26306266  0.24478820  1
  H  H942  1  0.84922110  0.17572696  0.33075551  1
  C  C943  1  0.90139111  0.15449452  0.25454955  1
  O  O944  1  0.93781160  0.31562239  0.24014523  1
  C  C945  1  0.94782464  0.22709883  0.20411865  1
  H  H946  1  0.89264980  0.11237862  0.25832065  1
  C  C947  1  0.93747033  0.17277097  0.20904931  1
  H  H948  1  0.91232850  0.33764854  0.26460236  1
  H  H949  1  0.97502952  0.24193606  0.16871477  1
  O  O950  1  0.96309396  0.13792437  0.17014693  1
  H  H951  1  0.99229178  0.15604324  0.14661016  1
  H  H952  1  0.70342897  -0.02229962  0.57264121  1
  C  C953  1  0.72174544  0.00542605  0.54059726  1
  C  C954  1  0.71017319  0.05973221  0.54529284  1
  C  C955  1  0.75738462  -0.01306246  0.49478934  1
  H  H956  1  0.68255457  0.07427300  0.58075560  1
  C  C957  1  0.73472458  0.09550567  0.50454932  1
  O  O958  1  0.77114497  -0.06562256  0.49014497  1
  C  C959  1  0.78115891  0.02290130  0.45411742  1
  H  H960  1  0.72598297  0.13762125  0.50832071  1
  C  C961  1  0.77080300  0.07722890  0.45904986  1
  H  H962  1  0.74566142  -0.08764849  0.51460256  1
  H  H963  1  0.80836269  0.00806429  0.41871519  1
  O  O964  1  0.79642784  0.11207565  0.42014620  1
  H  H965  1  0.82562475  0.09395713  0.39661043  1
  H  H966  1  0.62990520  0.02230603  0.69763776  1
  C  C967  1  0.61158773  -0.00542175  0.66559591  1
  C  C968  1  0.62315993  -0.05972862  0.67030068  1
  C  C969  1  0.57595095  0.01306292  0.61978648  1
  H  H970  1  0.65077584  -0.07426621  0.70576323  1
  C  C971  1  0.59860558  -0.09550403  0.62955792  1
  O  O972  1  0.56219105  0.06562301  0.61513389  1
  C  C973  1  0.55217521  -0.02290327  0.57911688  1
  H  H974  1  0.60734709  -0.13762063  0.63333618  1
  C  C975  1  0.56253087  -0.07723180  0.58405862  1
  H  H976  1  0.58767320  0.08765065  0.63959191  1
  H  H977  1  0.52497403  -0.00806944  0.54371301  1
  O  O978  1  0.53690357  -0.11208044  0.54515694  1
  H  H979  1  0.50770862  -0.09396322  0.52161900  1
  H  H980  1  0.79657158  0.22769419  0.69763760  1
  C  C981  1  0.77825396  0.25541990  0.66559591  1
  C  C982  1  0.78982640  0.30973041  0.67030020  1
  C  C983  1  0.74261788  0.23693950  0.61978653  1
  H  H984  1  0.81744247  0.32426598  0.70576323  1
  C  C985  1  0.76527250  0.34550237  0.62955851  1
  O  O986  1  0.72885798  0.18437553  0.61513421  1
  C  C987  1  0.71884183  0.27290166  0.57911704  1
  H  H988  1  0.77401377  0.38762131  0.63333634  1
  C  C989  1  0.72919749  0.32723354  0.58405792  1
  H  H990  1  0.75433948  0.16234974  0.63959164  1
  H  H991  1  0.69164066  0.25806979  0.54371317  1
  O  O992  1  0.70357065  0.36207997  0.54515737  1
  H  H993  1  0.67437509  0.34396315  0.52161895  1
  H  H994  1  0.87009559  0.27229932  0.57264094  1
  C  C995  1  0.88841071  0.24457420  0.54059888  1
  C  C996  1  0.87684067  0.19026757  0.54529165  1
  C  C997  1  0.92405240  0.26306188  0.49478766  1
  H  H998  1  0.84922069  0.17572678  0.58075593  1
  C  C999  1  0.90139031  0.15449466  0.50455061  1
  O  O1000  1  0.93781110  0.31562310  0.49014551  1
  C  C1001  1  0.94782424  0.22709935  0.45411926  1
  H  H1002  1  0.89264980  0.11237868  0.50832065  1
  C  C1003  1  0.93747073  0.17277049  0.45904797  1
  H  H1004  1  0.91232900  0.33764842  0.51460191  1
  H  H1005  1  0.97502962  0.24193592  0.41871473  1
  O  O1006  1  0.96309366  0.13792449  0.42014750  1
  H  H1007  1  0.99229198  0.15604356  0.39660991  1
  H  H1008  1  0.70342912  -0.02229920  0.82264106  1
  C  C1009  1  0.72174443  0.00542543  0.79059861  1
  C  C1010  1  0.71017359  0.05973285  0.79529214  1
  C  C1011  1  0.75738567  -0.01306187  0.74478772  1
  H  H1012  1  0.68255432  0.07427312  0.83075545  1
  C  C1013  1  0.73472383  0.09550549  0.75455051  1
  O  O1014  1  0.77114487  -0.06562302  0.74014595  1
  C  C1015  1  0.78115721  0.02290115  0.70411948  1
  H  H1016  1  0.72598342  0.13762131  0.75832077  1
  C  C1017  1  0.77080415  0.07722909  0.70904819  1
  H  H1018  1  0.74566242  -0.08764842  0.76460143  1
  H  H1019  1  0.80836304  0.00806403  0.66871458  1
  O  O1020  1  0.79642684  0.11207560  0.67014716  1
  H  H1021  1  0.82562540  0.09395660  0.64661003  1
  H  H1022  1  0.62990510  0.02230591  0.94763717  1
  C  C1023  1  0.61158943  -0.00542209  0.91559819  1
  C  C1024  1  0.62315812  -0.05972822  0.92029853  1
  C  C1025  1  0.57594885  0.01306344  0.86978378  1
  H  H1026  1  0.65077669  -0.07426655  0.95576410  1
  C  C1027  1  0.59860748  -0.09550499  0.87956068  1
  O  O1028  1  0.56219155  0.06562270  0.86513481  1
  C  C1029  1  0.55217791  -0.02290423  0.82911986  1
  H  H1030  1  0.60734669  -0.13762017  0.88333608  1
  C  C1031  1  0.56252851  -0.07723100  0.83405517  1
  H  H1032  1  0.58767275  0.08765075  0.88959127  1
  H  H1033  1  0.52497293  -0.00806893  0.79371177  1
  O  O1034  1  0.53690558  -0.11208113  0.79515868  1
  H  H1035  1  0.50770757  -0.09396254  0.77161825  1
  H  H1036  1  0.79657158  0.22769440  0.94763695  1
  C  C1037  1  0.77825606  0.25542103  0.91559862  1
  C  C1038  1  0.78982465  0.30972916  0.92029799  1
  C  C1039  1  0.74261568  0.23693797  0.86978356  1
  H  H1040  1  0.81744362  0.32426655  0.95576389  1
  C  C1041  1  0.76527416  0.34550377  0.87956068  1
  O  O1042  1  0.72885838  0.18437640  0.86513535  1
  C  C1043  1  0.71884424  0.27290267  0.82911970  1
  H  H1044  1  0.77401317  0.38762074  0.88333624  1
  C  C1045  1  0.72919554  0.32723272  0.83405522  1
  H  H1046  1  0.75433908  0.16234940  0.88959083  1
  H  H1047  1  0.69163986  0.25806915  0.79371226  1
  O  O1048  1  0.70357205  0.36208046  0.79515852  1
  H  H1049  1  0.67437434  0.34396289  0.77161841  1
  H  H1050  1  0.87009569  0.27229911  0.82264074  1
  C  C1051  1  0.88841131  0.24457536  0.79059861  1
  C  C1052  1  0.87684017  0.19026649  0.79529203  1
  C  C1053  1  0.92405220  0.26306077  0.74478767  1
  H  H1054  1  0.84922110  0.17572702  0.83075550  1
  C  C1055  1  0.90139081  0.15449596  0.75455013  1
  O  O1056  1  0.93781140  0.31562362  0.74014584  1
  C  C1057  1  0.94782404  0.22710022  0.70411926  1
  H  H1058  1  0.89264980  0.11237807  0.75832066  1
  C  C1059  1  0.93747063  0.17276933  0.70904814  1
  H  H1060  1  0.91232900  0.33764821  0.76460165  1
  H  H1061  1  0.97502962  0.24193578  0.66871469  1
  O  O1062  1  0.96309306  0.13792473  0.67014775  1
  H  H1063  1  0.99229218  0.15604340  0.64660970  1
  H  H1064  1  0.70342841  -0.02229970  1.07264177  1
  C  C1065  1  0.72174639  0.00542625  1.04059586  1
  C  C1066  1  0.71017109  0.05973250  1.04529588  1
  C  C1067  1  0.75738351  -0.01306278  0.99479103  1
  H  H1068  1  0.68255532  0.07427271  1.08075432  1
  C  C1069  1  0.73472649  0.09550536  1.00454679  1
  O  O1070  1  0.77114577  -0.06562205  0.99014466  1
  C  C1071  1  0.78116016  0.02290086  0.95411581  1
  H  H1072  1  0.72598317  0.13762168  1.00832121  1
  C  C1073  1  0.77080100  0.07722948  0.95905215  1
  H  H1074  1  0.74566147  -0.08764859  1.01460225  1
  H  H1075  1  0.80836199  0.00806448  0.91871599  1
  O  O1076  1  0.79642834  0.11207522  0.92014516  1
  H  H1077  1  0.82562450  0.09395715  0.89661085  1
  H  H1078  1  0.62990515  0.02230599  1.19763804  1
  C  C1079  1  0.61158718  -0.00542226  1.16559527  1
  C  C1080  1  0.62315952  -0.05972814  1.17030026  1
  C  C1081  1  0.57595165  0.01306326  1.11978730  1
  H  H1082  1  0.65077559  -0.07426632  1.20576346  1
  C  C1083  1  0.59860598  -0.09550478  1.12955799  1
  O  O1084  1  0.56219090  0.06562291  1.11513379  1
  C  C1085  1  0.55217440  -0.02290392  1.07911587  1
  H  H1086  1  0.60734689  -0.13762030  1.13333598  1
  C  C1087  1  0.56253072  -0.07723100  1.08405880  1
  H  H1088  1  0.58767355  0.08765037  1.13959225  1
  H  H1089  1  0.52497443  -0.00806946  1.04371313  1
  O  O1090  1  0.53690327  -0.11208061  1.04515647  1
  H  H1091  1  0.50770892  -0.09396358  1.02161896  1
  H  H1092  1  0.79657073  0.22769518  1.19763599  1
  C  C1093  1  0.77825921  0.25542115  1.16560306  1
  C  C1094  1  0.78982159  0.30972850  1.17029378  1
  C  C1095  1  0.74261207  0.23693806  1.11977897  1
  H  H1096  1  0.81744482  0.32426724  1.20576552  1
  C  C1097  1  0.76527756  0.34550471  1.12956545  1
  O  O1098  1  0.72886018  0.18437596  1.11513671  1
  C  C1099  1  0.71884809  0.27290322  1.07912484  1
  H  H1100  1  0.77401292  0.38761996  1.13333576  1
  C  C1101  1  0.72919108  0.32723229  1.08404993  1
  H  H1102  1  0.75433807  0.16234981  1.13959008  1
  H  H1103  1  0.69163835  0.25806842  1.04371043  1
  O  O1104  1  0.70357471  0.36208089  1.04516177  1
  H  H1105  1  0.67437299  0.34396169  1.02161712  1
  H  H1106  1  0.87009539  0.27229944  1.07264209  1
  C  C1107  1  0.88841372  0.24457487  1.04059500  1
  C  C1108  1  0.87683736  0.19026636  1.04529577  1
  C  C1109  1  0.92404939  0.26306145  0.99479179  1
  H  H1110  1  0.84922280  0.17572752  1.08075453  1
  C  C1111  1  0.90139311  0.15449563  1.00454636  1
  O  O1112  1  0.93781230  0.31562298  0.99014444  1
  C  C1113  1  0.94782754  0.22709961  0.95411538  1
  H  H1114  1  0.89264940  0.11237808  1.00832099  1
  C  C1115  1  0.93746722  0.17277073  0.95905290  1
  H  H1116  1  0.91232790  0.33764816  1.01460290  1
  H  H1117  1  0.97502842  0.24193538  0.91871599  1
  O  O1118  1  0.96309597  0.13792490  0.92014473  1
  H  H1119  1  0.99229047  0.15604271  0.89661090  1
  H  H1120  1  0.70342897  0.47770083  0.32264083  1
  C  C1121  1  0.72174509  0.50542483  0.29059795  1
  C  C1122  1  0.71017319  0.55973348  0.29529270  1
  C  C1123  1  0.75738502  0.48693855  0.24478874  1
  H  H1124  1  0.68255457  0.57427283  0.33075524  1
  C  C1125  1  0.73472453  0.59550449  0.25454966  1
  O  O1126  1  0.77114532  0.43437710  0.24014531  1
  C  C1127  1  0.78115831  0.52290064  0.20411822  1
  H  H1128  1  0.72598317  0.63762180  0.25832078  1
  C  C1129  1  0.77080330  0.57722961  0.20904916  1
  H  H1130  1  0.74566177  0.41235147  0.26460217  1
  H  H1131  1  0.80836269  0.50806397  0.16871475  1
  O  O1132  1  0.79642719  0.61207559  0.17014659  1
  H  H1133  1  0.82562505  0.59395683  0.14661022  1
  H  H1134  1  0.62990470  0.52230558  0.44763713  1
  C  C1135  1  0.61158898  0.49457883  0.41559798  1
  C  C1136  1  0.62315847  0.44027090  0.42029865  1
  C  C1137  1  0.57594930  0.51306270  0.36978414  1
  H  H1138  1  0.65077634  0.42573358  0.45576371  1
  C  C1139  1  0.59860743  0.40449567  0.37956032  1
  O  O1140  1  0.56219185  0.56562321  0.36513469  1
  C  C1141  1  0.55217716  0.47709627  0.32911933  1
  H  H1142  1  0.60734694  0.36237955  0.38333598  1
  C  C1143  1  0.56252876  0.42276847  0.33405575  1
  H  H1144  1  0.58767260  0.58765059  0.38959133  1
  H  H1145  1  0.52497318  0.49193090  0.29371203  1
  O  O1146  1  0.53690478  0.38791924  0.29515826  1
  H  H1147  1  0.50770792  0.40603719  0.27161840  1
  H  H1148  1  0.79657158  0.72769432  0.44763748  1
  C  C1149  1  0.77825461  0.75542088  0.41559650  1
  C  C1150  1  0.78982605  0.80972943  0.42029946  1
  C  C1151  1  0.74261723  0.73693833  0.36978585  1
  H  H1152  1  0.81744277  0.82426633  0.45576338  1
  C  C1153  1  0.76527295  0.84550347  0.37955886  1
  O  O1154  1  0.72885788  0.68437636  0.36513423  1
  C  C1155  1  0.71884218  0.77290245  0.32911733  1
  H  H1156  1  0.77401342  0.88762087  0.38333614  1
  C  C1157  1  0.72919674  0.82723256  0.33405732  1
  H  H1158  1  0.75433953  0.66234964  0.38959155  1
  H  H1159  1  0.69164071  0.75806957  0.29371259  1
  O  O1160  1  0.70357100  0.86208043  0.29515753  1
  H  H1161  1  0.67437474  0.84396300  0.27161872  1
  H  H1162  1  0.87009579  0.77229912  0.32264094  1
  C  C1163  1  0.88841211  0.74457644  0.29059776  1
  C  C1164  1  0.87683917  0.69026548  0.29529305  1
  C  C1165  1  0.92405109  0.76305950  0.24478920  1
  H  H1166  1  0.84922130  0.67572740  0.33075511  1
  C  C1167  1  0.90139151  0.65449730  0.25454904  1
  O  O1168  1  0.93781210  0.81562417  0.24014593  1
  C  C1169  1  0.94782554  0.72710153  0.20411792  1
  H  H1170  1  0.89265020  0.61237739  0.25832135  1
  C  C1171  1  0.93746892  0.67276816  0.20904975  1
  H  H1172  1  0.91232870  0.83764848  0.26460147  1
  H  H1173  1  0.97502922  0.74193541  0.16871539  1
  O  O1174  1  0.96309396  0.63792554  0.17014634  1
  H  H1175  1  0.99229127  0.65604283  0.14661051  1
  H  H1176  1  0.70342872  0.47770045  0.57264062  1
  C  C1177  1  0.72174383  0.50542696  0.54059888  1
  C  C1178  1  0.71017389  0.55973135  0.54529208  1
  C  C1179  1  0.75738657  0.48693543  0.49478707  1
  H  H1180  1  0.68255432  0.57427302  0.58075560  1
  C  C1181  1  0.73472343  0.59550700  0.50455061  1
  O  O1182  1  0.77114492  0.43437885  0.49014535  1
  C  C1183  1  0.78115651  0.52290357  0.45412017  1
  H  H1184  1  0.72598287  0.63762052  0.50832060  1
  C  C1185  1  0.77080485  0.57722687  0.45904775  1
  H  H1186  1  0.74566152  0.41235099  0.51460250  1
  H  H1187  1  0.80836349  0.50806350  0.41871371  1
  O  O1188  1  0.79642659  0.61207667  0.42014737  1
  H  H1189  1  0.82562545  0.59395631  0.39660978  1
  H  H1190  1  0.62990485  0.52230587  0.69763776  1
  C  C1191  1  0.61158758  0.49457978  0.66559629  1
  C  C1192  1  0.62316008  0.44027009  0.67030047  1
  C  C1193  1  0.57595115  0.51306100  0.61978648  1
  H  H1194  1  0.65077599  0.42573395  0.70576312  1
  C  C1195  1  0.59860578  0.40449719  0.62955830  1
  O  O1196  1  0.56219110  0.56562434  0.61513464  1
  C  C1197  1  0.55217526  0.47709858  0.57911699  1
  H  H1198  1  0.60734689  0.36237884  0.63333639  1
  C  C1199  1  0.56253082  0.42276630  0.58405787  1
  H  H1200  1  0.58767300  0.58765045  0.63959120  1
  H  H1201  1  0.52497403  0.49193024  0.54371333  1
  O  O1202  1  0.53690413  0.38792009  0.54515748  1
  H  H1203  1  0.50770842  0.40603657  0.52161895  1
  H  H1204  1  0.79657208  0.72769347  0.69763846  1
  C  C1205  1  0.77825305  0.75542272  0.66559380  1
  C  C1206  1  0.78982750  0.80972744  0.67030187  1
  C  C1207  1  0.74261908  0.73693654  0.61978875  1
  H  H1208  1  0.81744197  0.82426614  0.70576291  1
  C  C1209  1  0.76527155  0.84550517  0.62955640  1
  O  O1210  1  0.72885703  0.68437745  0.61513308  1
  C  C1211  1  0.71883993  0.77290363  0.57911434  1
  H  H1212  1  0.77401382  0.88762002  0.63333612  1
  C  C1213  1  0.72919865  0.82723124  0.58406019  1
  H  H1214  1  0.75434043  0.66234940  0.63959229  1
  H  H1215  1  0.69164136  0.75806966  0.54371355  1
  O  O1216  1  0.70356955  0.86208052  0.54515618  1
  H  H1217  1  0.67437560  0.84396375  0.52161922  1
  H  H1218  1  0.87009569  0.77229917  0.57264035  1
  C  C1219  1  0.88840961  0.74457341  0.54060045  1
  C  C1220  1  0.87684157  0.69026855  0.54529122  1
  C  C1221  1  0.92405400  0.76306348  0.49478572  1
  H  H1222  1  0.84922019  0.67572664  0.58075587  1
  C  C1223  1  0.90138961  0.65449309  0.50455202  1
  O  O1224  1  0.93781110  0.81562190  0.49014621  1
  C  C1225  1  0.94782213  0.72709742  0.45412120  1
  H  H1226  1  0.89264980  0.61237928  0.50832060  1
  C  C1227  1  0.93747223  0.67277218  0.45904635  1
  H  H1228  1  0.91232870  0.83764886  0.51460180  1
  H  H1229  1  0.97503072  0.74193631  0.41871384  1
  O  O1230  1  0.96309206  0.63792342  0.42014823  1
  H  H1231  1  0.99229268  0.65604392  0.39660953  1
  H  H1232  1  0.70342917  0.47770097  0.82264106  1
  C  C1233  1  0.72174554  0.50542323  0.79059764  1
  C  C1234  1  0.71017199  0.55973485  0.79529371  1
  C  C1235  1  0.75738437  0.48694054  0.74478924  1
  H  H1236  1  0.68255497  0.57427260  0.83075480  1
  C  C1237  1  0.73472534  0.59550279  0.75454867  1
  O  O1238  1  0.77114512  0.43437554  0.74014606  1
  C  C1239  1  0.78115881  0.52289832  0.70411769  1
  H  H1240  1  0.72598327  0.63762251  0.75832115  1
  C  C1241  1  0.77080210  0.57723193  0.70905003  1
  H  H1242  1  0.74566262  0.41235170  0.76460105  1
  H  H1243  1  0.80836224  0.50806458  0.66871544  1
  O  O1244  1  0.79642764  0.61207459  0.67014651  1
  H  H1245  1  0.82562465  0.59395721  0.64661030  1
  H  H1246  1  0.62990530  0.52230591  0.94763739  1
  C  C1247  1  0.61158818  0.49457869  0.91559635  1
  C  C1248  1  0.62315977  0.44027075  0.92030047  1
  C  C1249  1  0.57595035  0.51306284  0.86978562  1
  H  H1250  1  0.65077599  0.42573386  0.95576302  1
  C  C1251  1  0.59860588  0.40449624  0.87955874  1
  O  O1252  1  0.56219115  0.56562297  0.86513400  1
  C  C1253  1  0.55217596  0.47709688  0.82911759  1
  H  H1254  1  0.60734704  0.36237922  0.88333624  1
  C  C1255  1  0.56253032  0.42276791  0.83405739  1
  H  H1256  1  0.58767300  0.58765073  0.88959164  1
  H  H1257  1  0.52497363  0.49193062  0.79371280  1
  O  O1258  1  0.53690403  0.38791943  0.79515754  1
  H  H1259  1  0.50770847  0.40603690  0.77161895  1
  H  H1260  1  0.79657133  0.72769446  0.94763674  1
  C  C1261  1  0.77825641  0.75542112  0.91559916  1
  C  C1262  1  0.78982400  0.80972896  0.92029734  1
  C  C1263  1  0.74261538  0.73693781  0.86978291  1
  H  H1264  1  0.81744387  0.82426651  0.95576410  1
  C  C1265  1  0.76527491  0.84550432  0.87956171  1
  O  O1266  1  0.72885868  0.68437646  0.86513503  1
  C  C1267  1  0.71884509  0.77290335  0.82912062  1
  H  H1268  1  0.77401312  0.88762030  0.88333613  1
  C  C1269  1  0.72919454  0.82723190  0.83405420  1
  H  H1270  1  0.75433898  0.66234922  0.88959083  1
  H  H1271  1  0.69163936  0.75806900  0.79371188  1
  O  O1272  1  0.70357226  0.86208081  0.79515927  1
  H  H1273  1  0.67437424  0.84396262  0.77161809  1
  H  H1274  1  0.87009519  0.77229950  0.82264117  1
  C  C1275  1  0.88841111  0.74457275  0.79059851  1
  C  C1276  1  0.87683997  0.69026888  0.79529333  1
  C  C1277  1  0.92405250  0.76306404  0.74478816  1
  H  H1278  1  0.84922120  0.67572678  0.83075545  1
  C  C1279  1  0.90139121  0.65449328  0.75454965  1
  O  O1280  1  0.93781180  0.81562133  0.74014481  1
  C  C1281  1  0.94782414  0.72709761  0.70411861  1
  H  H1282  1  0.89264970  0.61237924  0.75832072  1
  C  C1283  1  0.93747023  0.67277204  0.70904916  1
  H  H1284  1  0.91232830  0.83764886  0.76460246  1
  H  H1285  1  0.97502982  0.74193607  0.66871480  1
  O  O1286  1  0.96309366  0.63792398  0.67014683  1
  H  H1287  1  0.99229178  0.65604359  0.64661014  1
  H  H1288  1  0.70342922  0.47770092  1.07264058  1
  C  C1289  1  0.72174438  0.50542498  1.04059911  1
  C  C1290  1  0.71017374  0.55973277  1.04529231  1
  C  C1291  1  0.75738582  0.48693921  0.99478757  1
  H  H1292  1  0.68255437  0.57427307  1.08075551  1
  C  C1293  1  0.73472423  0.59550478  1.00454993  1
  O  O1294  1  0.77114472  0.43437634  0.99014628  1
  C  C1295  1  0.78115771  0.52289978  0.95411905  1
  H  H1296  1  0.72598372  0.63762151  1.00832099  1
  C  C1297  1  0.77080330  0.57723018  0.95904858  1
  H  H1298  1  0.74566247  0.41235175  1.01460117  1
  H  H1299  1  0.80836279  0.50806430  0.91871469  1
  O  O1300  1  0.79642639  0.61207516  0.92014689  1
  H  H1301  1  0.82562525  0.59395669  0.89660993  1
  H  H1302  1  0.62990485  0.52230572  1.19763728  1
  C  C1303  1  0.61158878  0.49457859  1.16559754  1
  C  C1304  1  0.62315872  0.44027104  1.17029875  1
  C  C1305  1  0.57594960  0.51306289  1.11978492  1
  H  H1306  1  0.65077654  0.42573353  1.20576378  1
  C  C1307  1  0.59860733  0.40449548  1.12955993  1
  O  O1308  1  0.56219135  0.56562316  1.11513498  1
  C  C1309  1  0.55217691  0.47709613  1.07911889  1
  H  H1310  1  0.60734659  0.36237955  1.13333630  1
  C  C1311  1  0.56252911  0.42276866  1.08405610  1
  H  H1312  1  0.58767295  0.58765045  1.13959127  1
  H  H1313  1  0.52497328  0.49193076  1.04371237  1
  O  O1314  1  0.53690493  0.38791919  1.04515777  1
  H  H1315  1  0.50770802  0.40603700  1.02161853  1
  H  H1316  1  0.79657093  0.72769484  1.19763642  1
  C  C1317  1  0.77825766  0.75542135  1.16560100  1
  C  C1318  1  0.78982330  0.80972867  1.17029594  1
  C  C1319  1  0.74261382  0.73693824  1.11978125  1
  H  H1320  1  0.81744412  0.82426680  1.20576476  1
  C  C1321  1  0.76527611  0.84550404  1.12956307  1
  O  O1322  1  0.72885943  0.68437612  1.11513617  1
  C  C1323  1  0.71884609  0.77290221  1.07912225  1
  H  H1324  1  0.77401277  0.88762068  1.13333619  1
  C  C1325  1  0.72919324  0.82723322  1.08405242  1
  H  H1326  1  0.75433872  0.66234945  1.13959052  1
  H  H1327  1  0.69163931  0.75806905  1.04371151  1
  O  O1328  1  0.70357366  0.86208014  1.04516047  1
  H  H1329  1  0.67437374  0.84396253  1.02161766  1
  H  H1330  1  0.87009639  0.77229808  1.07263907  1
  C  C1331  1  0.88840771  0.74457615  1.04060398  1
  C  C1332  1  0.87684307  0.69026637  1.04528842  1
  C  C1333  1  0.92405630  0.76306050  0.99478227  1
  H  H1334  1  0.84921939  0.67572655  1.08075648  1
  C  C1335  1  0.90138781  0.65449512  1.00455468  1
  O  O1336  1  0.93780989  0.81562379  0.99014790  1
  C  C1337  1  0.94781983  0.72709978  0.95412489  1
  H  H1338  1  0.89265010  0.61237872  1.00832045  1
  C  C1339  1  0.93747463  0.67276967  0.95904252  1
  H  H1340  1  0.91233000  0.83764810  1.01460052  1
  H  H1341  1  0.97503132  0.74193674  0.91871286  1
  O  O1342  1  0.96308956  0.63792394  0.92015089  1
  H  H1343  1  0.99229408  0.65604496  0.89660847  1
