# generated using pymatgen
data_H3C3O
_symmetry_space_group_name_H-M   'P 1'
_cell_length_a   20.93920000
_cell_length_b   28.21860000
_cell_length_c   22.66280000
_cell_angle_alpha   90.00000000
_cell_angle_beta   90.00000000
_cell_angle_gamma   90.00000000
_symmetry_Int_Tables_number   1
_chemical_formula_structural   H3C3O
_chemical_formula_sum   'H576 C576 O192'
_cell_volume   13390.87989040
_cell_formula_units_Z   192
loop_
 _symmetry_equiv_pos_site_id
 _symmetry_equiv_pos_as_xyz
  1  'x, y, z'
loop_
 _atom_site_type_symbol
 _atom_site_label
 _atom_site_symmetry_multiplicity
 _atom_site_fract_x
 _atom_site_fract_y
 _atom_site_fract_z
 _atom_site_occupancy
  H  H0  1  0.22926820  0.29772607  0.06612928  1
  O  O1  1  0.26362044  0.27935434  0.04750762  1
  C  C2  1  0.28805256  0.24646197  0.08570295  1
  C  C3  1  0.25988208  0.23835439  0.14071127  1
  C  C4  1  0.34180849  0.22027903  0.06921219  1
  H  H5  1  0.21835654  0.25851785  0.15443691  1
  C  C6  1  0.28539703  0.20415739  0.17853262  1
  C  C7  1  0.36728109  0.18583625  0.10661258  1
  H  H8  1  0.36414529  0.22669130  0.02678949  1
  H  H9  1  0.26328970  0.19809885  0.22107969  1
  C  C10  1  0.33915903  0.17799130  0.16174385  1
  O  O11  1  0.41944788  0.16053211  0.08847867  1
  H  H12  1  0.35874042  0.15166565  0.19158368  1
  H  H13  1  0.43707513  0.14145962  0.12090643  1
  H  H14  1  -0.22926832  -0.29772597  0.19112891  1
  O  O15  1  -0.26362007  -0.27935392  0.17250768  1
  C  C16  1  -0.28805310  -0.24646204  0.21070132  1
  C  C17  1  -0.25988128  -0.23835428  0.26571240  1
  C  C18  1  -0.34180738  -0.22027875  0.19421339  1
  H  H19  1  -0.21835667  -0.25851764  0.27943668  1
  C  C20  1  -0.28539789  -0.20415760  0.30353150  1
  C  C21  1  -0.36728191  -0.18583633  0.23161126  1
  H  H22  1  -0.36414540  -0.22669117  0.15178876  1
  H  H23  1  -0.26328972  -0.19809900  0.34608025  1
  C  C24  1  -0.33915849  -0.17799124  0.28674490  1
  O  O25  1  -0.41944748  -0.16053228  0.21347887  1
  H  H26  1  -0.35874070  -0.15166601  0.31658365  1
  H  H27  1  -0.43707538  -0.14145970  0.24590630  1
  H  H28  1  0.02073289  0.46439201  0.19112857  1
  O  O29  1  -0.01361972  0.44601952  0.17250696  1
  C  C30  1  -0.03805170  0.41312859  0.21070183  1
  C  C31  1  -0.00988190  0.40502031  0.26571166  1
  C  C32  1  -0.09180832  0.38694509  0.19421255  1
  H  H33  1  0.03164418  0.42518402  0.27943655  1
  C  C34  1  -0.03539700  0.37082438  0.30353203  1
  C  C35  1  -0.11728117  0.35250335  0.23161205  1
  H  H36  1  -0.11414495  0.39335770  0.15178905  1
  H  H37  1  -0.01328981  0.36476557  0.34607999  1
  C  C38  1  -0.08915943  0.34465781  0.28674450  1
  O  O39  1  -0.16944818  0.32719910  0.21347888  1
  H  H40  1  -0.10874083  0.31833292  0.31658378  1
  H  H41  1  -0.18707540  0.30812665  0.24590632  1
  H  H42  1  0.47926709  -0.13105881  0.06612898  1
  O  O43  1  0.51362009  -0.11268674  0.04750658  1
  C  C44  1  0.53805079  -0.07979497  0.08570417  1
  C  C45  1  0.50988296  -0.07168728  0.14070984  1
  C  C46  1  0.59180940  -0.05361236  0.06921043  1
  H  H47  1  0.46835558  -0.09185097  0.15443684  1
  C  C48  1  0.53539586  -0.03749065  0.17853386  1
  C  C49  1  0.61728018  -0.01916956  0.10661427  1
  H  H50  1  0.61414464  -0.06002437  0.02679007  1
  H  H51  1  0.51328984  -0.03143220  0.22107916  1
  C  C52  1  0.58916011  -0.01132490  0.16174260  1
  O  O53  1  0.66944853  0.00613437  0.08847825  1
  H  H54  1  0.60874056  0.01500097  0.19158406  1
  H  H55  1  0.68707533  0.02520670  0.12090664  1
  H  H56  1  0.22926783  0.29772609  0.31612946  1
  O  O57  1  0.26362066  0.27935403  0.29750684  1
  C  C58  1  0.28805079  0.24646220  0.33570422  1
  C  C59  1  0.25988368  0.23835399  0.39070983  1
  C  C60  1  0.34181003  0.22027867  0.31921029  1
  H  H61  1  0.21835600  0.25851804  0.40443706  1
  C  C62  1  0.28539584  0.20415764  0.42853364  1
  C  C63  1  0.36727929  0.18583663  0.35661385  1
  H  H64  1  0.36414464  0.22669115  0.27678981  1
  H  H65  1  0.26329032  0.19809892  0.47107910  1
  C  C66  1  0.33916060  0.17799105  0.41174228  1
  O  O67  1  0.41944867  0.16053145  0.33847802  1
  H  H68  1  0.35874053  0.15166570  0.44158350  1
  H  H69  1  0.43707499  0.14145995  0.37090570  1
  H  H70  1  -0.22926836  -0.29772597  0.44112902  1
  O  O71  1  -0.26362012  -0.27935447  0.42250777  1
  C  C72  1  -0.28805327  -0.24646161  0.46070244  1
  C  C73  1  -0.25988120  -0.23835477  0.51571163  1
  C  C74  1  -0.34180764  -0.22027941  0.44421257  1
  H  H75  1  -0.21835684  -0.25851770  0.52943683  1
  C  C76  1  -0.28539769  -0.20415718  0.55353244  1
  C  C77  1  -0.36728191  -0.18583585  0.48161236  1
  H  H78  1  -0.36414529  -0.22669124  0.40178940  1
  H  H79  1  -0.26328955  -0.19809896  0.59608001  1
  C  C80  1  -0.33915829  -0.17799170  0.53674416  1
  O  O81  1  -0.41944739  -0.16053246  0.46347874  1
  H  H82  1  -0.35874053  -0.15166570  0.56658388  1
  H  H83  1  -0.43707533  -0.14145969  0.49590660  1
  H  H84  1  0.02073269  0.46439210  0.44112873  1
  O  O85  1  -0.01361987  0.44601969  0.42250724  1
  C  C86  1  -0.03805178  0.41312880  0.46070197  1
  C  C87  1  -0.00988215  0.40502022  0.51571173  1
  C  C88  1  -0.09180843  0.38694492  0.44421304  1
  H  H89  1  0.03164418  0.42518415  0.52943668  1
  C  C90  1  -0.03539661  0.37082451  0.55353202  1
  C  C91  1  -0.11728068  0.35250362  0.48161194  1
  H  H92  1  -0.11414514  0.39335775  0.40178916  1
  H  H93  1  -0.01328962  0.36476553  0.59608006  1
  C  C94  1  -0.08915967  0.34465760  0.53674479  1
  O  O95  1  -0.16944855  0.32719867  0.46347942  1
  H  H96  1  -0.10874054  0.31833286  0.56658377  1
  H  H97  1  -0.18707519  0.30812680  0.49590624  1
  H  H98  1  0.47926709  -0.13105859  0.31612867  1
  O  O99  1  0.51361958  -0.11268633  0.29750707  1
  C  C100  1  0.53805125  -0.07979536  0.33570238  1
  C  C101  1  0.50988268  -0.07168671  0.39071117  1
  C  C102  1  0.59180912  -0.05361141  0.31921229  1
  H  H103  1  0.46835595  -0.09185092  0.40443656  1
  C  C104  1  0.53539632  -0.03749125  0.42853230  1
  C  C105  1  0.61727995  -0.01917055  0.35661201  1
  H  H106  1  0.61414486  -0.06002443  0.27678900  1
  H  H107  1  0.51329001  -0.03143214  0.47107952  1
  C  C108  1  0.58916051  -0.01132399  0.41174396  1
  O  O109  1  0.66944910  0.00613525  0.33847892  1
  H  H110  1  0.60874050  0.01500048  0.44158329  1
  H  H111  1  0.68707499  0.02520632  0.37090541  1
  H  H112  1  0.22926761  0.29772599  0.56612924  1
  O  O113  1  0.26362047  0.27935386  0.54750696  1
  C  C114  1  0.28805150  0.24646201  0.58570366  1
  C  C115  1  0.25988308  0.23835413  0.64071048  1
  C  C116  1  0.34180932  0.22027873  0.56921115  1
  H  H117  1  0.21835618  0.25851796  0.65443690  1
  C  C118  1  0.28539643  0.20415756  0.67853319  1
  C  C119  1  0.36728009  0.18583656  0.60661321  1
  H  H120  1  0.36414492  0.22669117  0.52678957  1
  H  H121  1  0.26329007  0.19809898  0.72107939  1
  C  C122  1  0.33916006  0.17799126  0.66174301  1
  O  O123  1  0.41944850  0.16053181  0.58847822  1
  H  H124  1  0.35874053  0.15166572  0.69158362  1
  H  H125  1  0.43707516  0.14145983  0.62090598  1
  H  H126  1  -0.22926865  -0.29772576  0.69112925  1
  O  O127  1  -0.26361961  -0.27935534  0.67250655  1
  C  C128  1  -0.28805244  -0.24646060  0.71070599  1
  C  C129  1  -0.25988219  -0.23835563  0.76570860  1
  C  C130  1  -0.34180866  -0.22028051  0.69420880  1
  H  H131  1  -0.21835645  -0.25851766  0.77943706  1
  C  C132  1  -0.28539695  -0.20415612  0.80353499  1
  C  C133  1  -0.36728089  -0.18583483  0.73161569  1
  H  H134  1  -0.36414466  -0.22669113  0.65179052  1
  H  H135  1  -0.26329018  -0.19809896  0.84607861  1
  C  C136  1  -0.33915906  -0.17799274  0.78674070  1
  O  O137  1  -0.41944765  -0.16053251  0.71347723  1
  H  H138  1  -0.35874087  -0.15166492  0.81658426  1
  H  H139  1  -0.43707530  -0.14145944  0.74590683  1
  H  H140  1  0.02073256  0.46439214  0.69112899  1
  O  O141  1  -0.01361978  0.44602003  0.67250660  1
  C  C142  1  -0.03805118  0.41312838  0.71070362  1
  C  C143  1  -0.00988274  0.40502069  0.76571007  1
  C  C144  1  -0.09180903  0.38694551  0.69421069  1
  H  H145  1  0.03164444  0.42518398  0.77943670  1
  C  C146  1  -0.03539629  0.37082388  0.80353335  1
  C  C147  1  -0.11728007  0.35250292  0.73161380  1
  H  H148  1  -0.11414472  0.39335779  0.65178974  1
  H  H149  1  -0.01329003  0.36476540  0.84607918  1
  C  C150  1  -0.08915995  0.34465823  0.78674270  1
  O  O151  1  -0.16944850  0.32719884  0.71347834  1
  H  H152  1  -0.10874085  0.31833237  0.81658390  1
  H  H153  1  -0.18707526  0.30812648  0.74590631  1
  H  H154  1  0.47926704  -0.13105859  0.56612861  1
  O  O155  1  0.51361958  -0.11268639  0.54750644  1
  C  C156  1  0.53805085  -0.07979507  0.58570361  1
  C  C157  1  0.50988273  -0.07168704  0.64071011  1
  C  C158  1  0.59180946  -0.05361185  0.56921079  1
  H  H159  1  0.46835567  -0.09185089  0.65443674  1
  C  C160  1  0.53539626  -0.03749097  0.67853329  1
  C  C161  1  0.61727978  -0.01917005  0.60661342  1
  H  H162  1  0.61414446  -0.06002427  0.52678962  1
  H  H163  1  0.51329018  -0.03143230  0.72107944  1
  C  C164  1  0.58916045  -0.01132459  0.66174301  1
  O  O165  1  0.66944898  0.00613470  0.58847833  1
  H  H166  1  0.60874079  0.01500062  0.69158383  1
  H  H167  1  0.68707516  0.02520650  0.62090598  1
  H  H168  1  0.22926823  0.29772576  0.81612868  1
  O  O169  1  0.26362004  0.27935405  0.79750798  1
  C  C170  1  0.28805276  0.24646206  0.83570153  1
  C  C171  1  0.25988171  0.23835392  0.89071234  1
  C  C172  1  0.34180846  0.22027818  0.81921407  1
  H  H173  1  0.21835674  0.25851798  0.90443686  1
  C  C174  1  0.28539726  0.20415819  0.92853142  1
  C  C175  1  0.36728057  0.18583741  0.85661107  1
  H  H176  1  0.36414529  0.22669109  0.77678890  1
  H  H177  1  0.26328955  0.19809904  0.97108051  1
  C  C178  1  0.33915932  0.17799028  0.91174539  1
  O  O179  1  0.41944879  0.16053124  0.83847977  1
  H  H180  1  0.35874030  0.15166637  0.94158359  1
  H  H181  1  0.43707487  0.14146033  0.87090558  1
  H  H182  1  -0.22926816  -0.29772578  0.94112890  1
  O  O183  1  -0.26361955  -0.27935438  0.92250731  1
  C  C184  1  -0.28805341  -0.24646125  0.96070269  1
  C  C185  1  -0.25988114  -0.23835492  1.01571104  1
  C  C186  1  -0.34180733  -0.22027962  0.94421176  1
  H  H187  1  -0.21835698  -0.25851768  1.02943671  1
  C  C188  1  -0.28539803  -0.20415686  1.05353274  1
  C  C189  1  -0.36728220  -0.18583542  0.98161224  1
  H  H190  1  -0.36414506  -0.22669115  0.90178891  1
  H  H191  1  -0.26328992  -0.19809900  1.09607973  1
  C  C192  1  -0.33915840  -0.17799202  1.03674346  1
  O  O193  1  -0.41944725  -0.16053251  0.96347773  1
  H  H194  1  -0.35874084  -0.15166551  1.06658355  1
  H  H195  1  -0.43707541  -0.14145961  0.99590622  1
  H  H196  1  0.02073311  0.46439231  0.94112890  1
  O  O197  1  -0.01361985  0.44601977  0.92250604  1
  C  C198  1  -0.03805033  0.41312804  0.96070480  1
  C  C199  1  -0.00988305  0.40502077  1.01570914  1
  C  C200  1  -0.09180970  0.38694598  0.94420892  1
  H  H201  1  0.03164447  0.42518411  1.02943671  1
  C  C202  1  -0.03539613  0.37082362  1.05353411  1
  C  C203  1  -0.11728023  0.35250235  0.98161466  1
  H  H204  1  -0.11414417  0.39335754  0.90179018  1
  H  H205  1  -0.01329030  0.36476557  1.09607899  1
  C  C206  1  -0.08916014  0.34465863  1.03674167  1
  O  O207  1  -0.16944852  0.32719918  0.96347720  1
  H  H208  1  -0.10874104  0.31833235  1.06658397  1
  H  H209  1  -0.18707533  0.30812650  0.99590633  1
  H  H210  1  0.47926749  -0.13105851  0.81612879  1
  O  O211  1  0.51361918  -0.11268764  0.79750556  1
  C  C212  1  0.53805113  -0.07979341  0.83570710  1
  C  C213  1  0.50988256  -0.07168885  0.89070761  1
  C  C214  1  0.59180906  -0.05361391  0.81920733  1
  H  H215  1  0.46835544  -0.09185052  0.90443686  1
  C  C216  1  0.53539643  -0.03748918  0.92853615  1
  C  C217  1  0.61728074  -0.01916785  0.85661744  1
  H  H218  1  0.61414424  -0.06002422  0.77679132  1
  H  H219  1  0.51329018  -0.03143237  0.97107841  1
  C  C220  1  0.58915931  -0.01132667  0.91173992  1
  O  O221  1  0.66944773  0.00613336  0.83847709  1
  H  H222  1  0.60874124  0.01500155  0.94158506  1
  H  H223  1  0.68707561  0.02520723  0.87090779  1
  H  H224  1  0.22926836  0.63105947  0.06612944  1
  O  O225  1  0.26362035  0.61268812  0.04750670  1
  C  C226  1  0.28805162  0.57979465  0.08570558  1
  C  C227  1  0.25988291  0.57168836  0.14070910  1
  C  C228  1  0.34180920  0.55361314  0.06920924  1
  H  H229  1  0.21835602  0.59185115  0.15443713  1
  C  C230  1  0.28539635  0.53749007  0.17853475  1
  C  C231  1  0.36728032  0.51916874  0.10661531  1
  H  H232  1  0.36414472  0.56002449  0.02679061  1
  H  H233  1  0.26329009  0.53143231  0.22107887  1
  C  C234  1  0.33915957  0.51132546  0.16174140  1
  O  O235  1  0.41944810  0.49386571  0.08847769  1
  H  H236  1  0.35874070  0.48499858  0.19158426  1
  H  H237  1  0.43707524  0.47479284  0.12090690  1
  H  H238  1  -0.22926791  0.03560726  0.19112907  1
  O  O239  1  -0.26362041  0.05397947  0.17250734  1
  C  C240  1  -0.28805199  0.08687120  0.21070263  1
  C  C241  1  -0.25988234  0.09497919  0.26571124  1
  C  C242  1  -0.34180872  0.11305454  0.19421203  1
  H  H243  1  -0.21835627  0.07481551  0.27943684  1
  C  C244  1  -0.28539683  0.12917564  0.30353255  1
  C  C245  1  -0.36728077  0.14749684  0.23161263  1
  H  H246  1  -0.36414509  0.10664213  0.15178936  1
  H  H247  1  -0.26328987  0.13523436  0.34607980  1
  C  C248  1  -0.33915937  0.15534208  0.28674385  1
  O  O249  1  -0.41944816  0.17280120  0.21347862  1
  H  H250  1  -0.35874062  0.18166741  0.31658373  1
  H  H251  1  -0.43707524  0.19187351  0.24590630  1
  H  H252  1  0.02073225  0.79772511  0.19112849  1
  O  O253  1  -0.01361881  0.77935398  0.17250638  1
  C  C254  1  -0.03805313  0.74646055  0.21070317  1
  C  C255  1  -0.00988072  0.73835510  0.26571069  1
  C  C256  1  -0.09180701  0.72027993  0.19421115  1
  H  H257  1  0.03164388  0.75851692  0.27943647  1
  C  C258  1  -0.03539799  0.70415647  0.30353308  1
  C  C259  1  -0.11728233  0.68583518  0.23161352  1
  H  H260  1  -0.11414498  0.72669102  0.15178953  1
  H  H261  1  -0.01328988  0.69809897  0.34607957  1
  C  C262  1  -0.08915814  0.67799254  0.28674314  1
  O  O263  1  -0.16944716  0.66053330  0.21347823  1
  H  H264  1  -0.10874134  0.65166571  0.31658436  1
  H  H265  1  -0.18707566  0.64145950  0.24590711  1
  H  H266  1  0.47926709  0.20227424  0.06612899  1
  O  O267  1  0.51362032  0.22064725  0.04750737  1
  C  C268  1  0.53805182  0.25353764  0.08570111  1
  C  C269  1  0.50988165  0.26164647  0.14071234  1
  C  C270  1  0.59180804  0.27972175  0.06921347  1
  H  H271  1  0.46835592  0.24148258  0.15443661  1
  C  C272  1  0.53539712  0.29584214  0.17853149  1
  C  C273  1  0.61728143  0.31416313  0.10661123  1
  H  H274  1  0.61414515  0.27330880  0.02678888  1
  H  H275  1  0.51328955  0.30190125  0.22108011  1
  C  C276  1  0.58915903  0.32200918  0.16174507  1
  O  O277  1  0.66944807  0.33946760  0.08847913  1
  H  H278  1  0.60874067  0.34833381  0.19158361  1
  H  H279  1  0.68707527  0.35854002  0.12090630  1
  H  H280  1  0.22926799  0.63105939  0.31612915  1
  O  O281  1  0.26362018  0.61268740  0.29750747  1
  C  C282  1  0.28805253  0.57979524  0.33570249  1
  C  C283  1  0.25988200  0.57168772  0.39071133  1
  C  C284  1  0.34180824  0.55361230  0.31921198  1
  H  H285  1  0.21835674  0.59185115  0.40443677  1
  C  C286  1  0.28539732  0.53749079  0.42853219  1
  C  C287  1  0.36728129  0.51916941  0.35661201  1
  H  H288  1  0.36414509  0.56002457  0.27678913  1
  H  H289  1  0.26328984  0.53143219  0.47107968  1
  C  C290  1  0.33915906  0.51132465  0.41174383  1
  O  O291  1  0.41944779  0.49386537  0.33847813  1
  H  H292  1  0.35874056  0.48499901  0.44158329  1
  H  H293  1  0.43707524  0.47479314  0.37090589  1
  H  H294  1  -0.22926749  0.03560686  0.44112955  1
  O  O295  1  -0.26362126  0.05397962  0.42250729  1
  C  C296  1  -0.28805150  0.08687092  0.46070318  1
  C  C297  1  -0.25988262  0.09497922  0.51571110  1
  C  C298  1  -0.34180903  0.11305433  0.44421162  1
  H  H299  1  -0.21835625  0.07481532  0.52943694  1
  C  C300  1  -0.28539663  0.12917581  0.55353281  1
  C  C301  1  -0.36728089  0.14749724  0.48161320  1
  H  H302  1  -0.36414501  0.10664213  0.40178982  1
  H  H303  1  -0.26328967  0.13523437  0.59607980  1
  C  C304  1  -0.33915920  0.15534187  0.53674347  1
  O  O305  1  -0.41944762  0.17280079  0.46347806  1
  H  H306  1  -0.35874039  0.18166762  0.56658393  1
  H  H307  1  -0.43707547  0.19187374  0.49590703  1
  H  H308  1  0.02073287  0.79772562  0.44112855  1
  O  O309  1  -0.01361999  0.77935254  0.42250811  1
  C  C310  1  -0.03805254  0.74646266  0.46069934  1
  C  C311  1  -0.00988098  0.73835299  0.51571384  1
  C  C312  1  -0.09180769  0.72027756  0.44421556  1
  H  H313  1  0.03164380  0.75851768  0.52943652  1
  C  C314  1  -0.03539750  0.70415842  0.55353002  1
  C  C315  1  -0.11728156  0.68583767  0.48160957  1
  H  H316  1  -0.11414532  0.72669110  0.40178827  1
  H  H317  1  -0.01328928  0.69809889  0.59608090  1
  C  C318  1  -0.08915890  0.67799009  0.53674679  1
  O  O319  1  -0.16944835  0.66053186  0.46348000  1
  H  H320  1  -0.10874044  0.65166672  0.56658340  1
  H  H321  1  -0.18707514  0.64146034  0.49590587  1
  H  H322  1  0.47926664  0.20227432  0.31612901  1
  O  O323  1  0.51362044  0.22064759  0.29750699  1
  C  C324  1  0.53805085  0.25353745  0.33570151  1
  C  C325  1  0.50988268  0.26164687  0.39071178  1
  C  C326  1  0.59180906  0.27972202  0.31921248  1
  H  H327  1  0.46835584  0.24148233  0.40443656  1
  C  C328  1  0.53539655  0.29584186  0.42853162  1
  C  C329  1  0.61728052  0.31416296  0.35661161  1
  H  H330  1  0.61414481  0.27330894  0.27678881  1
  H  H331  1  0.51328984  0.30190118  0.47107995  1
  C  C332  1  0.58916000  0.32200941  0.41174443  1
  O  O333  1  0.66944842  0.33946802  0.33847839  1
  H  H334  1  0.60874067  0.34833381  0.44158334  1
  H  H335  1  0.68707533  0.35853994  0.37090586  1
  H  H336  1  0.22926754  0.63105943  0.56612930  1
  O  O337  1  0.26362081  0.61268681  0.54750717  1
  C  C338  1  0.28805153  0.57979579  0.58570235  1
  C  C339  1  0.25988262  0.57168722  0.64071132  1
  C  C340  1  0.34180895  0.55361196  0.56921189  1
  H  H341  1  0.21835641  0.59185131  0.65443690  1
  C  C342  1  0.28539686  0.53749117  0.67853229  1
  C  C343  1  0.36728075  0.51916975  0.60661226  1
  H  H344  1  0.36414484  0.56002440  0.52678936  1
  H  H345  1  0.26329004  0.53143236  0.72107981  1
  C  C346  1  0.33915957  0.51132444  0.66174401  1
  O  O347  1  0.41944799  0.49386537  0.58847828  1
  H  H348  1  0.35874056  0.48499930  0.69158347  1
  H  H349  1  0.43707527  0.47479314  0.62090609  1
  H  H350  1  -0.22926835  0.03560739  0.69112910  1
  O  O351  1  -0.26361990  0.05397901  0.67250802  1
  C  C352  1  -0.28805321  0.08687126  0.71070173  1
  C  C353  1  -0.25988143  0.09497905  0.76571217  1
  C  C354  1  -0.34180781  0.11305459  0.69421337  1
  H  H355  1  -0.21835679  0.07481557  0.77943675  1
  C  C356  1  -0.28539754  0.12917584  0.80353151  1
  C  C357  1  -0.36728143  0.14749671  0.73161096  1
  H  H358  1  -0.36414540  0.10664194  0.65178879  1
  H  H359  1  -0.26328955  0.13523456  0.84608003  1
  C  C360  1  -0.33915886  0.15534232  0.78674470  1
  O  O361  1  -0.41944790  0.17280152  0.71347897  1
  H  H362  1  -0.35874033  0.18166754  0.81658321  1
  H  H363  1  -0.43707504  0.19187330  0.74590568  1
  H  H364  1  0.02073304  0.79772545  0.69112883  1
  O  O365  1  -0.01362014  0.77935271  0.67250739  1
  C  C366  1  -0.03805147  0.74646275  0.71070104  1
  C  C367  1  -0.00988226  0.73835290  0.76571238  1
  C  C368  1  -0.09180870  0.72027773  0.69421353  1
  H  H369  1  0.03164407  0.75851768  0.77943654  1
  C  C370  1  -0.03539652  0.70415833  0.80353109  1
  C  C371  1  -0.11728043  0.68583746  0.73161080  1
  H  H372  1  -0.11414513  0.72669127  0.65178868  1
  H  H373  1  -0.01328954  0.69809868  0.84608013  1
  C  C374  1  -0.08916008  0.67799017  0.78674523  1
  O  O375  1  -0.16944886  0.66053165  0.71347908  1
  H  H376  1  -0.10874038  0.65166630  0.81658316  1
  H  H377  1  -0.18707517  0.64146034  0.74590557  1
  H  H378  1  0.47926709  0.20227491  0.56612824  1
  O  O379  1  0.51361924  0.22064711  0.54750728  1
  C  C380  1  0.53805210  0.25353815  0.58570135  1
  C  C381  1  0.50988171  0.26164641  0.64071201  1
  C  C382  1  0.59180826  0.27972185  0.56921336  1
  H  H383  1  0.46835621  0.24148248  0.65443648  1
  C  C384  1  0.53539729  0.29584216  0.67853156  1
  C  C385  1  0.61728086  0.31416292  0.60661110  1
  H  H386  1  0.61414503  0.27330899  0.52678852  1
  H  H387  1  0.51328972  0.30190106  0.72108017  1
  C  C388  1  0.58915966  0.32200912  0.66174495  1
  O  O389  1  0.66944870  0.33946817  0.58847901  1
  H  H390  1  0.60874067  0.34833371  0.69158347  1
  H  H391  1  0.68707516  0.35853968  0.62090567  1
  H  H392  1  0.22926714  0.63105972  0.81612942  1
  O  O393  1  0.26362160  0.61268647  0.79750766  1
  C  C394  1  0.28805096  0.57979643  0.83570247  1
  C  C395  1  0.25988328  0.57168667  0.89071150  1
  C  C396  1  0.34180966  0.55361150  0.81921249  1
  H  H397  1  0.21835607  0.59185157  0.90443697  1
  C  C398  1  0.28539615  0.53749146  0.92853236  1
  C  C399  1  0.36728018  0.51917047  0.85661239  1
  H  H400  1  0.36414515  0.56002457  0.77678943  1
  H  H401  1  0.26328972  0.53143231  0.97107988  1
  C  C402  1  0.33916008  0.51132402  0.91174424  1
  O  O403  1  0.41944853  0.49386508  0.83847898  1
  H  H404  1  0.35874016  0.48499943  0.94158359  1
  H  H405  1  0.43707516  0.47479331  0.87090627  1
  H  H406  1  -0.22926798  0.03560728  0.94112922  1
  O  O407  1  -0.26362038  0.05397974  0.92250752  1
  C  C408  1  -0.28805190  0.08687081  0.96070175  1
  C  C409  1  -0.25988245  0.09497974  1.01571177  1
  C  C410  1  -0.34180875  0.11305509  0.94421260  1
  H  H411  1  -0.21835649  0.07481541  1.02943682  1
  C  C412  1  -0.28539692  0.12917526  1.05353180  1
  C  C413  1  -0.36728038  0.14749639  0.98161161  1
  H  H414  1  -0.36414503  0.10664216  0.90178881  1
  H  H415  1  -0.26329001  0.13523447  1.09607994  1
  C  C416  1  -0.33915983  0.15534258  1.03674430  1
  O  O417  1  -0.41944822  0.17280172  0.96347867  1
  H  H418  1  -0.35874056  0.18166737  1.06658313  1
  H  H419  1  -0.43707524  0.19187355  0.99590559  1
  H  H420  1  0.02073269  0.79772511  0.94112796  1
  O  O421  1  -0.01361883  0.77935262  0.92250836  1
  C  C422  1  -0.03805441  0.74646207  0.96069743  1
  C  C423  1  -0.00987907  0.73835349  1.01571493  1
  C  C424  1  -0.09180558  0.72027782  0.94421734  1
  H  H425  1  0.03164275  0.75851742  1.02943619  1
  C  C426  1  -0.03539917  0.70415816  1.05352885  1
  C  C427  1  -0.11728333  0.68583721  0.98160729  1
  H  H428  1  -0.11414563  0.72669102  0.90178670  1
  H  H429  1  -0.01328935  0.69809906  1.09608120  1
  C  C430  1  -0.08915781  0.67799051  1.03674788  1
  O  O431  1  -0.16944726  0.66053224  0.96347931  1
  H  H432  1  -0.10874087  0.65166659  1.06658302  1
  H  H433  1  -0.18707543  0.64146026  0.99590549  1
  H  H434  1  0.47926704  0.20227502  0.81612853  1
  O  O435  1  0.51361918  0.22064614  0.79750640  1
  C  C436  1  0.53805136  0.25353916  0.83570547  1
  C  C437  1  0.50988268  0.26164537  0.89070876  1
  C  C438  1  0.59180952  0.27972042  0.81920939  1
  H  H439  1  0.46835587  0.24148248  0.90443686  1
  C  C440  1  0.53539592  0.29584311  0.92853478  1
  C  C441  1  0.61727983  0.31416413  0.85661559  1
  H  H442  1  0.61414452  0.27330901  0.77679048  1
  H  H443  1  0.51329001  0.30190099  0.97107883  1
  C  C444  1  0.58916034  0.32200787  0.91174171  1
  O  O445  1  0.66944881  0.33946783  0.83847824  1
  H  H446  1  0.60874067  0.34833447  0.94158443  1
  H  H447  1  0.68707521  0.35853985  0.87090674  1
  H  H448  1  0.22926875  0.96439228  0.06612902  1
  O  O449  1  0.26361958  0.94602165  0.04750740  1
  C  C450  1  0.28805241  0.91312830  0.08570431  1
  C  C451  1  0.25988234  0.90502133  0.14071010  1
  C  C452  1  0.34180912  0.88694565  0.06921112  1
  H  H453  1  0.21835648  0.92518459  0.15443707  1
  C  C454  1  0.28539635  0.87082397  0.17853388  1
  C  C455  1  0.36727938  0.85250328  0.10661389  1
  H  H456  1  0.36414503  0.89335793  0.02678988  1
  H  H457  1  0.26329001  0.86476563  0.22107914  1
  C  C458  1  0.33916014  0.84465788  0.16174282  1
  O  O459  1  0.41944893  0.82719797  0.08847910  1
  H  H460  1  0.35874036  0.81833236  0.19158378  1
  H  H461  1  0.43707482  0.80812675  0.12090575  1
  H  H462  1  -0.22926823  0.36894085  0.19112885  1
  O  O463  1  -0.26362004  0.38731262  0.17250754  1
  C  C464  1  -0.28805239  0.42020470  0.21070217  1
  C  C465  1  -0.25988191  0.42831243  0.26571156  1
  C  C466  1  -0.34180832  0.44638802  0.19421280  1
  H  H467  1  -0.21835648  0.40814884  0.27943684  1
  C  C468  1  -0.28539723  0.46250894  0.30353221  1
  C  C469  1  -0.36728089  0.48082994  0.23161194  1
  H  H470  1  -0.36414518  0.43997550  0.15178901  1
  H  H471  1  -0.26328987  0.46856763  0.34607996  1
  C  C472  1  -0.33915920  0.48867558  0.28674435  1
  O  O473  1  -0.41944825  0.50613482  0.21347900  1
  H  H474  1  -0.35874062  0.51500064  0.31658370  1
  H  H475  1  -0.43707513  0.52520668  0.24590601  1
  H  H476  1  0.02073233  1.13105826  0.19112833  1
  O  O477  1  -0.01361883  1.11268695  0.17250662  1
  C  C478  1  -0.03805180  1.07979437  0.21070356  1
  C  C479  1  -0.00988230  1.07168757  0.26571019  1
  C  C480  1  -0.09180866  1.05361223  0.19421118  1
  H  H481  1  0.03164400  1.09185057  0.27943663  1
  C  C482  1  -0.03539641  1.03749063  0.30353350  1
  C  C483  1  -0.11728018  1.01916968  0.23161371  1
  H  H484  1  -0.11414472  1.06002425  0.15178964  1
  H  H485  1  -0.01329008  1.03143237  0.34607949  1
  C  C486  1  -0.08915999  1.01132496  0.28674322  1
  O  O487  1  -0.16944873  0.99386539  0.21347897  1
  H  H488  1  -0.10874085  0.98499944  0.31658399  1
  H  H489  1  -0.18707517  0.97479332  0.24590616  1
  H  H490  1  0.47926709  0.53560793  0.06612878  1
  O  O491  1  0.51361998  0.55398017  0.04750722  1
  C  C492  1  0.53805170  0.58687144  0.08570257  1
  C  C493  1  0.50988205  0.59497955  0.14071130  1
  C  C494  1  0.59180872  0.61305485  0.06921229  1
  H  H495  1  0.46835601  0.57481575  0.15443665  1
  C  C496  1  0.53539666  0.62917577  0.17853240  1
  C  C497  1  0.61728086  0.64749672  0.10661253  1
  H  H498  1  0.61414498  0.60664224  0.02678942  1
  H  H499  1  0.51328967  0.63523450  0.22107969  1
  C  C500  1  0.58915960  0.65534224  0.16174424  1
  O  O501  1  0.66944842  0.67280123  0.08847882  1
  H  H502  1  0.60874050  0.68166747  0.19158378  1
  H  H503  1  0.68707516  0.69187325  0.12090634  1
  H  H504  1  0.22926788  0.96439287  0.31612949  1
  O  O505  1  0.26362064  0.94602072  0.29750681  1
  C  C506  1  0.28805139  0.91312856  0.33570412  1
  C  C507  1  0.25988293  0.90502099  0.39070996  1
  C  C508  1  0.34180920  0.88694591  0.31921014  1
  H  H509  1  0.21835625  0.92518467  0.40443704  1
  C  C510  1  0.28539649  0.87082397  0.42853346  1
  C  C511  1  0.36728040  0.85250243  0.35661379  1
  H  H512  1  0.36414469  0.89335784  0.27678976  1
  H  H513  1  0.26329021  0.86476554  0.47107926  1
  C  C514  1  0.33915980  0.84465831  0.41174241  1
  O  O515  1  0.41944768  0.82719898  0.33847728  1
  H  H516  1  0.35874067  0.81833211  0.44158366  1
  H  H517  1  0.43707547  0.80812624  0.37090646  1
  H  H518  1  -0.22926776  0.36894060  0.44112934  1
  O  O519  1  -0.26362084  0.38731271  0.42250756  1
  C  C520  1  -0.28805153  0.42020419  0.46070334  1
  C  C521  1  -0.25988299  0.42831273  0.51571094  1
  C  C522  1  -0.34180952  0.44638828  0.44421204  1
  H  H523  1  -0.21835614  0.40814859  0.52943699  1
  C  C524  1  -0.28539606  0.46250894  0.55353291  1
  C  C525  1  -0.36727983  0.48082960  0.48161294  1
  H  H526  1  -0.36414518  0.43997533  0.40178972  1
  H  H527  1  -0.26328984  0.46856771  0.59607948  1
  C  C528  1  -0.33916008  0.48867584  0.53674384  1
  O  O529  1  -0.41944884  0.50613525  0.46347927  1
  H  H530  1  -0.35874019  0.51500081  0.56658367  1
  H  H531  1  -0.43707490  0.52520655  0.49590592  1
  H  H532  1  0.02073101  1.13105784  0.44112787  1
  O  O533  1  -0.01361752  1.11268839  0.42250698  1
  C  C534  1  -0.03805429  1.07979310  0.46070350  1
  C  C535  1  -0.00988007  1.07168875  0.51571058  1
  C  C536  1  -0.09180670  1.05361324  0.44421204  1
  H  H537  1  0.03164334  1.09185015  0.52943652  1
  C  C538  1  -0.03539794  1.03748979  0.55353307  1
  C  C539  1  -0.11728160  1.01916917  0.48161336  1
  H  H540  1  -0.11414528  1.06002442  0.40178937  1
  H  H541  1  -0.01328974  1.03143229  0.59607969  1
  C  C542  1  -0.08915856  1.01132539  0.53674358  1
  O  O543  1  -0.16944808  0.99386556  0.46347953  1
  H  H544  1  -0.10874098  0.98499910  0.56658430  1
  H  H545  1  -0.18707507  0.97479332  0.49590629  1
  H  H546  1  0.47926709  0.53560801  0.31612875  1
  O  O547  1  0.51361953  0.55398025  0.29750684  1
  C  C548  1  0.53805147  0.58687161  0.33570291  1
  C  C549  1  0.50988228  0.59497943  0.39071078  1
  C  C550  1  0.59180883  0.61305477  0.31921156  1
  H  H551  1  0.46835604  0.57481588  0.40443659  1
  C  C552  1  0.53539683  0.62917602  0.42853251  1
  C  C553  1  0.61728052  0.64749672  0.35661258  1
  H  H554  1  0.61414464  0.60664232  0.27678929  1
  H  H555  1  0.51329001  0.63523445  0.47107952  1
  C  C556  1  0.58915960  0.65534216  0.41174338  1
  O  O557  1  0.66944853  0.67280135  0.33847836  1
  H  H558  1  0.60874090  0.68166734  0.44158360  1
  H  H559  1  0.68707516  0.69187325  0.37090578  1
  H  H560  1  0.22926732  0.96439279  0.56612945  1
  O  O561  1  0.26362101  0.94602038  0.54750686  1
  C  C562  1  0.28805039  0.91312923  0.58570387  1
  C  C563  1  0.25988390  0.90502040  0.64071022  1
  C  C564  1  0.34181034  0.88694532  0.56921063  1
  H  H565  1  0.21835578  0.92518476  0.65443700  1
  C  C566  1  0.28539561  0.87082440  0.67853340  1
  C  C567  1  0.36727927  0.85250344  0.60661358  1
  H  H568  1  0.36414472  0.89335784  0.52678973  1
  H  H569  1  0.26329012  0.86476554  0.72107923  1
  C  C570  1  0.33916080  0.84465772  0.66174269  1
  O  O571  1  0.41944876  0.82719822  0.58847822  1
  H  H572  1  0.35874036  0.81833253  0.69158352  1
  H  H573  1  0.43707504  0.80812666  0.62090588  1
  H  H574  1  -0.22926809  0.36894047  0.69112952  1
  O  O575  1  -0.26362072  0.38731262  0.67250729  1
  C  C576  1  -0.28805167  0.42020432  0.71070309  1
  C  C577  1  -0.25988274  0.42831256  0.76571096  1
  C  C578  1  -0.34180923  0.44638819  0.69421174  1
  H  H579  1  -0.21835630  0.40814892  0.77943685  1
  C  C580  1  -0.28539652  0.46250899  0.80353283  1
  C  C581  1  -0.36727986  0.48082985  0.73161264  1
  H  H582  1  -0.36414503  0.43997533  0.65178953  1
  H  H583  1  -0.26329001  0.46856788  0.84607934  1
  C  C584  1  -0.33915991  0.48867575  0.78674354  1
  O  O585  1  -0.41944859  0.50613516  0.71347887  1
  H  H586  1  -0.35874039  0.51500089  0.81658337  1
  H  H587  1  -0.43707487  0.52520681  0.74590568  1
  H  H588  1  0.02073356  1.13105927  0.69112936  1
  O  O589  1  -0.01362108  1.11268552  0.67250676  1
  C  C590  1  -0.03805018  1.07979623  0.71070215  1
  C  C591  1  -0.00988309  1.07168630  0.76571138  1
  C  C592  1  -0.09180976  1.05361113  0.69421195  1
  H  H593  1  0.03164449  1.09185107  0.77943675  1
  C  C594  1  -0.03539622  1.03749148  0.80353204  1
  C  C595  1  -0.11728018  1.01917027  0.73161206  1
  H  H596  1  -0.11414459  1.06002442  0.65178926  1
  H  H597  1  -0.01328991  1.03143212  0.84607976  1
  C  C598  1  -0.08916011  1.01132403  0.78674428  1
  O  O599  1  -0.16944835  0.99386547  0.71347844  1
  H  H600  1  -0.10874063  0.98499953  0.81658342  1
  H  H601  1  -0.18707533  0.97479349  0.74590605  1
  H  H602  1  0.47926721  0.53560801  0.56612824  1
  O  O603  1  0.51361941  0.55398080  0.54750770  1
  C  C604  1  0.53805295  0.58687123  0.58569893  1
  C  C605  1  0.50988051  0.59497993  0.64071385  1
  C  C606  1  0.59180667  0.61305527  0.56921536  1
  H  H607  1  0.46835649  0.57481592  0.65443637  1
  C  C608  1  0.53539837  0.62917526  0.67852972  1
  C  C609  1  0.61728251  0.64749638  0.60660921  1
  H  H610  1  0.61414526  0.60664236  0.52678773  1
  H  H611  1  0.51328950  0.63523433  0.72108107  1
  C  C612  1  0.58915840  0.65534262  0.66174669  1
  O  O613  1  0.66944762  0.67280101  0.58847928  1
  H  H614  1  0.60874090  0.68166675  0.69158331  1
  H  H615  1  0.68707538  0.69187321  0.62090577  1
  H  H616  1  0.22926667  0.96439355  0.81612947  1
  O  O617  1  0.26362269  0.94601835  0.79750877  1
  C  C618  1  0.28805111  0.91313143  0.83569763  1
  C  C619  1  0.25988251  0.90501846  0.89071529  1
  C  C620  1  0.34180883  0.88694287  0.81921754  1
  H  H621  1  0.21835631  0.92518509  0.90443676  1
  C  C622  1  0.28539666  0.87082651  0.92852858  1
  C  C623  1  0.36728089  0.85250564  0.85660734  1
  H  H624  1  0.36414558  0.89335793  0.77678759  1
  H  H625  1  0.26328930  0.86476563  0.97108135  1
  C  C626  1  0.33915971  0.84465543  0.91174866  1
  O  O627  1  0.41944867  0.82719805  0.83848035  1
  H  H628  1  0.35873988  0.81833371  0.94158275  1
  H  H629  1  0.43707507  0.80812708  0.87090532  1
  H  H630  1  -0.22926756  0.36894072  0.94112922  1
  O  O631  1  -0.26362052  0.38731309  0.92250762  1
  C  C632  1  -0.28805207  0.42020394  0.96070185  1
  C  C633  1  -0.25988271  0.42831294  1.01571188  1
  C  C634  1  -0.34180878  0.44638828  0.94421260  1
  H  H635  1  -0.21835628  0.40814875  1.02943671  1
  C  C636  1  -0.28539669  0.46250873  1.05353169  1
  C  C637  1  -0.36728038  0.48082981  0.98161161  1
  H  H638  1  -0.36414518  0.43997528  0.90178902  1
  H  H639  1  -0.26328981  0.46856788  1.09607973  1
  C  C640  1  -0.33916006  0.48867592  1.03674409  1
  O  O641  1  -0.41944842  0.50613516  0.96347846  1
  H  H642  1  -0.35874030  0.51500081  1.06658302  1
  H  H643  1  -0.43707504  0.52520668  0.99590549  1
  H  H644  1  0.02073266  1.13105894  0.94112901  1
  O  O645  1  -0.01361977  1.11268661  0.92250583  1
  C  C646  1  -0.03805001  1.07979471  0.96070480  1
  C  C647  1  -0.00988339  1.07168757  1.01570872  1
  C  C648  1  -0.09180960  1.05361240  0.94420903  1
  H  H649  1  0.03164494  1.09185065  1.02943682  1
  C  C650  1  -0.03539616  1.03749046  1.05353432  1
  C  C651  1  -0.11727986  1.01916943  0.98161476  1
  H  H652  1  -0.11414420  1.06002425  0.90179018  1
  H  H653  1  -0.01329060  1.03143220  1.09607878  1
  C  C654  1  -0.08916027  1.01132505  1.03674135  1
  O  O655  1  -0.16944859  0.99386572  0.96347762  1
  H  H656  1  -0.10874134  0.98499910  1.06658418  1
  H  H657  1  -0.18707523  0.97479315  0.99590622  1
  H  H658  1  0.47926755  0.53560785  0.81612863  1
  O  O659  1  0.51361975  0.55398025  0.79750672  1
  C  C660  1  0.53805159  0.58687161  0.83570221  1
  C  C661  1  0.50988171  0.59497934  0.89071139  1
  C  C662  1  0.59180804  0.61305477  0.81921238  1
  H  H663  1  0.46835578  0.57481609  0.90443665  1
  C  C664  1  0.53539723  0.62917573  0.92853258  1
  C  C665  1  0.61728109  0.64749676  0.85661244  1
  H  H666  1  0.61414492  0.60664236  0.77678927  1
  H  H667  1  0.51328984  0.63523433  0.97107998  1
  C  C668  1  0.58915886  0.65534207  0.91174424  1
  O  O669  1  0.66944807  0.67280080  0.83847887  1
  H  H670  1  0.60874101  0.68166700  0.94158412  1
  H  H671  1  0.68707550  0.69187346  0.87090669  1
  H  H672  1  0.72926843  0.29772616  0.06612931  1
  O  O673  1  0.76362058  0.27935434  0.04750744  1
  C  C674  1  0.78805230  0.24646182  0.08570318  1
  C  C675  1  0.75988214  0.23835445  0.14071094  1
  C  C676  1  0.84180835  0.22027920  0.06921159  1
  H  H677  1  0.71835638  0.25851773  0.15443692  1
  C  C678  1  0.78539692  0.20415739  0.17853282  1
  C  C679  1  0.86728117  0.18583591  0.10661312  1
  H  H680  1  0.86414512  0.22669124  0.02678967  1
  H  H681  1  0.76328981  0.19809883  0.22107953  1
  C  C682  1  0.83915900  0.17799151  0.16174351  1
  O  O683  1  0.91944765  0.16053244  0.08847830  1
  H  H684  1  0.85874059  0.15166561  0.19158380  1
  H  H685  1  0.93707530  0.14145943  0.12090677  1
  H  H686  1  0.27073211  -0.29772607  0.19112897  1
  O  O687  1  0.23637946  -0.27935350  0.17250808  1
  C  C688  1  0.21194723  -0.24646261  0.21070039  1
  C  C689  1  0.24011854  -0.23835375  0.26571311  1
  C  C690  1  0.15819215  -0.22027818  0.19421454  1
  H  H691  1  0.28164328  -0.25851781  0.27943666  1
  C  C692  1  0.21460240  -0.20415817  0.30353071  1
  C  C693  1  0.13271840  -0.18583703  0.23161026  1
  H  H694  1  0.13585449  -0.22669130  0.15178845  1
  H  H695  1  0.23671046  -0.19809892  0.34608051  1
  C  C696  1  0.16084110  -0.17799064  0.28674592  1
  O  O697  1  0.08055208  -0.16053198  0.21347934  1
  H  H698  1  0.14125958  -0.15166622  0.31658331  1
  H  H699  1  0.06292478  -0.14145992  0.24590595  1
  H  H700  1  0.52073256  0.46439193  0.19112849  1
  O  O701  1  0.48638064  0.44601982  0.17250674  1
  C  C702  1  0.46194807  0.41312804  0.21070254  1
  C  C703  1  0.49011840  0.40502081  0.26571098  1
  C  C704  1  0.40819193  0.38694556  0.19421174  1
  H  H705  1  0.53164416  0.42518394  0.27943663  1
  C  C706  1  0.46460271  0.37082396  0.30353268  1
  C  C707  1  0.38271848  0.35250280  0.23161276  1
  H  H708  1  0.38585511  0.39335762  0.15178933  1
  H  H709  1  0.48671016  0.36476566  0.34607988  1
  C  C710  1  0.41084094  0.34465831  0.28674379  1
  O  O711  1  0.33055206  0.32719927  0.21347862  1
  H  H712  1  0.39125890  0.31833269  0.31658415  1
  H  H713  1  0.31292450  0.30812646  0.24590664  1
  H  H714  1  0.97926874  -0.13105805  0.06612788  1
  O  O715  1  1.01361759  -0.11268783  0.04750796  1
  C  C716  1  1.03805506  -0.07979379  0.08570110  1
  C  C717  1  1.00987937  -0.07168839  0.14071273  1
  C  C718  1  1.09180581  -0.05361269  0.06921432  1
  H  H719  1  0.96835698  -0.09185013  0.15443631  1
  C  C720  1  1.03539888  -0.03749016  0.17853128  1
  C  C721  1  1.11728262  -0.01916947  0.10661072  1
  H  H722  1  1.11414560  -0.06002458  0.02678837  1
  H  H723  1  1.01328932  -0.03143209  0.22108045  1
  C  C724  1  1.08915749  -0.01132504  0.16174518  1
  O  O725  1  1.16944773  0.00613421  0.08847969  1
  H  H726  1  1.10874101  0.01500061  0.19158376  1
  H  H727  1  1.18707510  0.02520664  0.12090598  1
  H  H728  1  0.72926820  0.29772603  0.31612920  1
  O  O729  1  0.76362024  0.27935407  0.29750736  1
  C  C730  1  0.78805219  0.24646193  0.33570243  1
  C  C731  1  0.75988219  0.23835422  0.39071133  1
  C  C732  1  0.84180835  0.22027890  0.31921203  1
  H  H733  1  0.71835655  0.25851777  0.40443680  1
  C  C734  1  0.78539726  0.20415758  0.42853225  1
  C  C735  1  0.86728089  0.18583629  0.35661208  1
  H  H736  1  0.86414495  0.22669115  0.27678913  1
  H  H737  1  0.76328998  0.19809885  0.47107968  1
  C  C738  1  0.83915911  0.17799117  0.41174372  1
  O  O739  1  0.91944776  0.16053207  0.33847821  1
  H  H740  1  0.85874076  0.15166582  0.44158334  1
  H  H741  1  0.93707530  0.14145963  0.37090594  1
  H  H742  1  0.27073188  -0.29772609  0.44112921  1
  O  O743  1  0.23637948  -0.27935424  0.42250735  1
  C  C744  1  0.21194807  -0.24646185  0.46070376  1
  C  C745  1  0.24011763  -0.23835437  0.51571068  1
  C  C746  1  0.15819108  -0.22027903  0.44421146  1
  H  H747  1  0.28164365  -0.25851798  0.52943704  1
  C  C748  1  0.21460325  -0.20415739  0.55353334  1
  C  C749  1  0.13271942  -0.18583620  0.48161336  1
  H  H750  1  0.13585503  -0.22669109  0.40178982  1
  H  H751  1  0.23671015  -0.19809906  0.59607964  1
  C  C752  1  0.16084060  -0.17799145  0.53674316  1
  O  O753  1  0.08055175  -0.16053196  0.46347853  1
  H  H754  1  0.14125952  -0.15166574  0.56658404  1
  H  H755  1  0.06292485  -0.14145993  0.49590650  1
  H  H756  1  0.52073273  0.46439193  0.44112881  1
  O  O757  1  0.48638024  0.44602028  0.42250653  1
  C  C758  1  0.46194903  0.41312808  0.46070465  1
  C  C759  1  0.49011726  0.40502081  0.51570958  1
  C  C760  1  0.40819051  0.38694573  0.44421025  1
  H  H761  1  0.53164439  0.42518415  0.52943683  1
  C  C762  1  0.46460405  0.37082400  0.55353412  1
  C  C763  1  0.38272016  0.35250305  0.48161462  1
  H  H764  1  0.38585533  0.39335770  0.40179030  1
  H  H765  1  0.48671005  0.36476557  0.59607917  1
  C  C766  1  0.41083983  0.34465827  0.53674247  1
  O  O767  1  0.33055104  0.32719874  0.46347869  1
  H  H768  1  0.39125930  0.31833245  0.56658425  1
  H  H769  1  0.31292484  0.30812678  0.49590655  1
  H  H770  1  0.97926715  -0.13105909  0.31612888  1
  O  O771  1  1.01362021  -0.11268580  0.29750713  1
  C  C772  1  1.03805164  -0.07979561  0.33570054  1
  C  C773  1  1.00988177  -0.07168667  0.39071243  1
  C  C774  1  1.09180775  -0.05361174  0.31921321  1
  H  H775  1  0.96835606  -0.09185064  0.40443643  1
  C  C776  1  1.03539763  -0.03749126  0.42853114  1
  C  C777  1  1.11728194  -0.01916985  0.35661069  1
  H  H778  1  1.11414492  -0.06002434  0.27678858  1
  H  H779  1  1.01328978  -0.03143209  0.47108021  1
  C  C780  1  1.08915874  -0.01132411  0.41174507  1
  O  O781  1  1.16944739  0.00613399  0.33847842  1
  H  H782  1  1.10874090  0.01500027  0.44158324  1
  H  H783  1  1.18707567  0.02520704  0.37090623  1
  H  H784  1  0.72926775  0.29772603  0.56612909  1
  O  O785  1  0.76362058  0.27935333  0.54750786  1
  C  C786  1  0.78805258  0.24646273  0.58570009  1
  C  C787  1  0.75988168  0.23835363  0.64071322  1
  C  C788  1  0.84180789  0.22027806  0.56921442  1
  H  H789  1  0.71835666  0.25851781  0.65443663  1
  C  C790  1  0.78539766  0.20415821  0.67853050  1
  C  C791  1  0.86728146  0.18583711  0.60661011  1
  H  H792  1  0.86414535  0.22669126  0.52678825  1
  H  H793  1  0.76328969  0.19809892  0.72108049  1
  C  C794  1  0.83915889  0.17799047  0.66174585  1
  O  O795  1  0.91944793  0.16053193  0.58847896  1
  H  H796  1  0.85874059  0.15166626  0.69158315  1
  H  H797  1  0.93707524  0.14145988  0.62090577  1
  H  H798  1  0.27073174  -0.29772609  0.69112936  1
  O  O799  1  0.23637985  -0.27935466  0.67250713  1
  C  C800  1  0.21194713  -0.24646130  0.71070357  1
  C  C801  1  0.24011837  -0.23835504  0.76571070  1
  C  C802  1  0.15819213  -0.22027970  0.69421111  1
  H  H803  1  0.28164339  -0.25851764  0.77943685  1
  C  C804  1  0.21460227  -0.20415665  0.80353304  1
  C  C805  1  0.13271806  -0.18583530  0.73161311  1
  H  H806  1  0.13585489  -0.22669126  0.65178963  1
  H  H807  1  0.23671025  -0.19809883  0.84607945  1
  C  C808  1  0.16084169  -0.17799216  0.78674291  1
  O  O809  1  0.08055287  -0.16053276  0.71347766  1
  H  H810  1  0.14125928  -0.15166529  0.81658379  1
  H  H811  1  0.06292451  -0.14145939  0.74590683  1
  H  H812  1  0.52073330  0.46439248  0.69112941  1
  O  O813  1  0.48637928  0.44601961  0.67250618  1
  C  C814  1  0.46195029  0.41312901  0.71070394  1
  C  C815  1  0.49011595  0.40502009  0.76570970  1
  C  C816  1  0.40818982  0.38694505  0.69421022  1
  H  H817  1  0.53164490  0.42518428  0.77943685  1
  C  C818  1  0.46460465  0.37082434  0.80353362  1
  C  C819  1  0.38272073  0.35250352  0.73161411  1
  H  H820  1  0.38585548  0.39335783  0.65179000  1
  H  H821  1  0.48670987  0.36476540  0.84607908  1
  C  C822  1  0.41083929  0.34465768  0.78674244  1
  O  O823  1  0.33055118  0.32719874  0.71347818  1
  H  H824  1  0.39125932  0.31833256  0.81658374  1
  H  H825  1  0.31292481  0.30812656  0.74590626  1
  H  H826  1  0.97926612  -0.13105868  0.56612877  1
  O  O827  1  1.01362009  -0.11268615  0.54750638  1
  C  C828  1  1.03805016  -0.07979506  0.58570450  1
  C  C829  1  1.00988359  -0.07168712  0.64070964  1
  C  C830  1  1.09181014  -0.05361185  0.56921010  1
  H  H831  1  0.96835561  -0.09185110  0.65443674  1
  C  C832  1  1.03539581  -0.03749076  0.67853371  1
  C  C833  1  1.11727943  -0.01917002  0.60661405  1
  H  H834  1  1.11414458  -0.06002437  0.52678983  1
  H  H835  1  1.01329001  -0.03143233  0.72107918  1
  C  C836  1  1.08916091  -0.01132480  0.66174248  1
  O  O837  1  1.16944910  0.00613482  0.58847796  1
  H  H838  1  1.10874056  0.01500087  0.69158389  1
  H  H839  1  1.18707521  0.02520642  0.62090609  1
  H  H840  1  0.72926763  0.29772628  0.81612921  1
  O  O841  1  0.76362098  0.27935362  0.79750761  1
  C  C842  1  0.78805173  0.24646239  0.83570253  1
  C  C843  1  0.75988248  0.23835380  0.89071160  1
  C  C844  1  0.84180909  0.22027848  0.81921249  1
  H  H845  1  0.71835604  0.25851806  0.90443686  1
  C  C846  1  0.78539663  0.20415792  0.92853247  1
  C  C847  1  0.86728060  0.18583682  0.85661228  1
  H  H848  1  0.86414517  0.22669120  0.77678948  1
  H  H849  1  0.76328964  0.19809894  0.97107998  1
  C  C850  1  0.83915974  0.17799086  0.91174413  1
  O  O851  1  0.91944856  0.16053187  0.83847909  1
  H  H852  1  0.85874036  0.15166603  0.94158380  1
  H  H853  1  0.93707501  0.14145989  0.87090627  1
  H  H854  1  0.27073265  -0.29772628  0.94112901  1
  O  O855  1  0.23637892  -0.27935267  0.92250857  1
  C  C856  1  0.21194754  -0.24646347  0.96069859  1
  C  C857  1  0.24011823  -0.23835287  1.01571440  1
  C  C858  1  0.15819203  -0.22027727  0.94421608  1
  H  H859  1  0.28164316  -0.25851806  1.02943650  1
  C  C860  1  0.21460243  -0.20415889  1.05352938  1
  C  C861  1  0.13271864  -0.18583796  0.98160824  1
  H  H862  1  0.13585445  -0.22669126  0.90178755  1
  H  H863  1  0.23671049  -0.19809889  1.09608099  1
  C  C864  1  0.16084085  -0.17798965  1.03674682  1
  O  O865  1  0.08055184  -0.16053130  0.96347941  1
  H  H866  1  0.14125969  -0.15166663  1.06658260  1
  H  H867  1  0.06292496  -0.14146012  0.99590507  1
  H  H868  1  0.52073256  0.46439176  0.94112796  1
  O  O869  1  0.48638127  0.44601935  0.92250836  1
  C  C870  1  0.46194607  0.41312884  0.96069806  1
  C  C871  1  0.49012017  0.40501993  1.01571472  1
  C  C872  1  0.40819378  0.38694425  0.94421692  1
  H  H873  1  0.53164302  0.42518398  1.02943608  1
  C  C874  1  0.46460129  0.37082497  1.05352864  1
  C  C875  1  0.38271757  0.35250434  0.98160740  1
  H  H876  1  0.38585425  0.39335783  0.90178691  1
  H  H877  1  0.48671073  0.36476549  1.09608131  1
  C  C878  1  0.41084159  0.34465686  1.03674767  1
  O  O879  1  0.33055195  0.32719840  0.96347983  1
  H  H880  1  0.39125930  0.31833336  1.06658281  1
  H  H881  1  0.31292490  0.30812703  0.99590507  1
  H  H882  1  0.97926817  -0.13105787  0.81612837  1
  O  O883  1  1.01361816  -0.11268833  0.79750556  1
  C  C884  1  1.03805050  -0.07979332  0.83570836  1
  C  C885  1  1.00988370  -0.07168854  0.89070645  1
  C  C886  1  1.09181048  -0.05361305  0.81920686  1
  H  H887  1  0.96835527  -0.09185064  0.90443707  1
  C  C888  1  1.03539501  -0.03748975  0.92853710  1
  C  C889  1  1.11727807  -0.01916925  0.85661812  1
  H  H890  1  1.11414412  -0.06002422  0.77679159  1
  H  H891  1  1.01329058  -0.03143242  0.97107798  1
  C  C892  1  1.08916136  -0.01132584  0.91173929  1
  O  O893  1  1.16945012  0.00613524  0.83847845  1
  H  H894  1  1.10874090  0.01500124  0.94158485  1
  H  H895  1  1.18707464  0.02520638  0.87090627  1
  H  H896  1  0.72926763  0.63105968  0.06612941  1
  O  O897  1  0.76362120  0.61268698  0.04750809  1
  C  C898  1  0.78805236  0.57979613  0.08570115  1
  C  C899  1  0.75988214  0.57168705  0.14071261  1
  C  C900  1  0.84180835  0.55361171  0.06921376  1
  H  H901  1  0.71835655  0.59185140  0.15443683  1
  C  C902  1  0.78539714  0.53749138  0.17853132  1
  C  C903  1  0.86728140  0.51917013  0.10661105  1
  H  H904  1  0.86414535  0.56002470  0.02678889  1
  H  H905  1  0.76328947  0.53143215  0.22108016  1
  C  C906  1  0.83915900  0.51132402  0.16174524  1
  O  O907  1  0.91944776  0.49386542  0.08847888  1
  H  H908  1  0.85874019  0.48499926  0.19158326  1
  H  H909  1  0.93707524  0.47479322  0.12090622  1
  H  H910  1  0.27073202  0.03560730  0.19112906  1
  O  O911  1  0.23637979  0.05397917  0.17250687  1
  C  C912  1  0.21194811  0.08687173  0.21070386  1
  C  C913  1  0.24011763  0.09497874  0.26571027  1
  C  C914  1  0.15819129  0.11305407  0.19421088  1
  H  H915  1  0.28164365  0.07481550  0.27943695  1
  C  C916  1  0.21460305  0.12917611  0.30353353  1
  C  C917  1  0.13271911  0.14749740  0.23161365  1
  H  H918  1  0.13585518  0.10664228  0.15178986  1
  H  H919  1  0.23670996  0.13523423  0.34607949  1
  C  C920  1  0.16084075  0.15534155  0.28674279  1
  O  O921  1  0.08055206  0.17280107  0.21347820  1
  H  H922  1  0.14125928  0.18166760  0.31658402  1
  H  H923  1  0.06292464  0.19187358  0.24590651  1
  H  H924  1  0.52073233  0.79772511  0.19112824  1
  O  O925  1  0.48638110  0.77935347  0.17250704  1
  C  C926  1  0.46194747  0.74646139  0.21070215  1
  C  C927  1  0.49011874  0.73835392  0.26571145  1
  C  C928  1  0.40819204  0.72027866  0.19421286  1
  H  H929  1  0.53164393  0.75851742  0.27943660  1
  C  C930  1  0.46460282  0.70415757  0.30353211  1
  C  C931  1  0.38271905  0.68583683  0.23161189  1
  H  H932  1  0.38585499  0.72669102  0.15178895  1
  H  H933  1  0.48671016  0.69809901  0.34608004  1
  C  C934  1  0.41084057  0.67799110  0.28674474  1
  O  O935  1  0.33055155  0.66053207  0.21347921  1
  H  H936  1  0.39125927  0.65166638  0.31658370  1
  H  H937  1  0.31292478  0.64146022  0.24590603  1
  H  H938  1  0.97926829  0.20227474  0.06612852  1
  O  O939  1  1.01361895  0.22064626  0.04750725  1
  C  C940  1  1.03805244  0.25353867  0.08570215  1
  C  C941  1  1.00988120  0.26164573  0.14071155  1
  C  C942  1  1.09180752  0.27972113  0.06921268  1
  H  H943  1  0.96835618  0.24148288  0.15443656  1
  C  C944  1  1.03539763  0.29584273  0.17853224  1
  C  C945  1  1.11728114  0.31416334  0.10661220  1
  H  H946  1  1.11414515  0.27330890  0.02678916  1
  H  H947  1  1.01328966  0.30190114  0.22107998  1
  C  C948  1  1.08915874  0.32200874  0.16174427  1
  O  O949  1  1.16944819  0.33946774  0.08847921  1
  H  H950  1  1.10874101  0.34833386  0.19158391  1
  H  H951  1  1.18707521  0.35854015  0.12090621  1
  H  H952  1  0.72926775  0.63105934  0.31612944  1
  O  O953  1  0.76362063  0.61268732  0.29750697  1
  C  C954  1  0.78805088  0.57979554  0.33570393  1
  C  C955  1  0.75988356  0.57168730  0.39071001  1
  C  C956  1  0.84180994  0.55361205  0.31921069  1
  H  H957  1  0.71835621  0.59185140  0.40443701  1
  C  C958  1  0.78539589  0.53749108  0.42853330  1
  C  C959  1  0.86727952  0.51917000  0.35661345  1
  H  H960  1  0.86414466  0.56002449  0.27678976  1
  H  H961  1  0.76329021  0.53143227  0.47107916  1
  C  C962  1  0.83916065  0.51132423  0.41174275  1
  O  O963  1  0.91944884  0.49386474  0.33847813  1
  H  H964  1  0.85874042  0.48499905  0.44158339  1
  H  H965  1  0.93707501  0.47479322  0.37090581  1
  H  H966  1  0.27073239  0.03560705  0.44112934  1
  O  O967  1  0.23637872  0.05397987  0.42250792  1
  C  C968  1  0.21194837  0.08687036  0.46070160  1
  C  C969  1  0.24011735  0.09497986  0.51571226  1
  C  C970  1  0.15819102  0.11305521  0.44421346  1
  H  H971  1  0.28164376  0.07481528  0.52943689  1
  C  C972  1  0.21460351  0.12917502  0.55353170  1
  C  C973  1  0.13271949  0.14749610  0.48161157  1
  H  H974  1  0.13585474  0.10664200  0.40178919  1
  H  H975  1  0.23671039  0.13523444  0.59608011  1
  C  C976  1  0.16084040  0.15534285  0.53674500  1
  O  O977  1  0.08055151  0.17280153  0.46347932  1
  H  H978  1  0.14125978  0.18166716  0.56658346  1
  H  H979  1  0.06292494  0.19187341  0.49590613  1
  H  H980  1  0.52073285  0.79772528  0.44112855  1
  O  O981  1  0.48638053  0.77935355  0.42250708  1
  C  C982  1  0.46194827  0.74646131  0.46070397  1
  C  C983  1  0.49011800  0.73835425  0.51571016  1
  C  C984  1  0.40819093  0.72027908  0.44421104  1
  H  H985  1  0.53164404  0.75851751  0.52943673  1
  C  C986  1  0.46460353  0.70415694  0.55353370  1
  C  C987  1  0.38271945  0.68583628  0.48161404  1
  H  H988  1  0.38585511  0.72669110  0.40178998  1
  H  H989  1  0.48671027  0.69809893  0.59607932  1
  C  C990  1  0.41084031  0.67799182  0.53674284  1
  O  O991  1  0.33055130  0.66053224  0.46347864  1
  H  H992  1  0.39125944  0.65166571  0.56658419  1
  H  H993  1  0.31292484  0.64146009  0.49590660  1
  H  H994  1  0.97926669  0.20227447  0.31612915  1
  O  O995  1  1.01362021  0.22064690  0.29750602  1
  C  C996  1  1.03805016  0.25353848  0.33570530  1
  C  C997  1  1.00988381  0.26164573  0.39070886  1
  C  C998  1  1.09180991  0.27972080  0.31920856  1
  H  H999  1  0.96835527  0.24148250  0.40443672  1
  C  C1000  1  1.03539581  0.29584322  0.42853472  1
  C  C1001  1  1.11728000  0.31416436  0.35661524  1
  H  H1002  1  1.11414446  0.27330894  0.27679034  1
  H  H1003  1  1.01329035  0.30190116  0.47107852  1
  C  C1004  1  1.08916057  0.32200810  0.41174107  1
  O  O1005  1  1.16944853  0.33946751  0.33847718  1
  H  H1006  1  1.10874090  0.34833457  0.44158403  1
  H  H1007  1  1.18707544  0.35854027  0.37090662  1
  H  H1008  1  0.72926786  0.63105930  0.56612909  1
  O  O1009  1  0.76362012  0.61268753  0.54750675  1
  C  C1010  1  0.78805230  0.57979448  0.58570393  1
  C  C1011  1  0.75988202  0.57168827  0.64071027  1
  C  C1012  1  0.84180812  0.55361310  0.56921042  1
  H  H1013  1  0.71835655  0.59185106  0.65443684  1
  C  C1014  1  0.78539749  0.53749020  0.67853350  1
  C  C1015  1  0.86728174  0.51916861  0.60661384  1
  H  H1016  1  0.86414478  0.56002436  0.52678967  1
  H  H1017  1  0.76329015  0.53143244  0.72107933  1
  C  C1018  1  0.83915866  0.51132563  0.66174243  1
  O  O1019  1  0.91944725  0.49386609  0.58847733  1
  H  H1020  1  0.85874093  0.48499884  0.69158404  1
  H  H1021  1  0.93707553  0.47479284  0.62090677  1
  H  H1022  1  0.27073176  0.03560738  0.69112941  1
  O  O1023  1  0.23637975  0.05397881  0.67250708  1
  C  C1024  1  0.21194825  0.08687139  0.71070404  1
  C  C1025  1  0.24011701  0.09497897  0.76571012  1
  C  C1026  1  0.15819061  0.11305439  0.69421106  1
  H  H1027  1  0.28164382  0.07481546  0.77943701  1
  C  C1028  1  0.21460378  0.12917596  0.80353341  1
  C  C1029  1  0.13272023  0.14749670  0.73161343  1
  H  H1030  1  0.13585506  0.10664200  0.65178979  1
  H  H1031  1  0.23671002  0.13523454  0.84607924  1
  C  C1032  1  0.16083993  0.15534221  0.78674275  1
  O  O1033  1  0.08055139  0.17280175  0.71347855  1
  H  H1034  1  0.14125960  0.18166771  0.81658353  1
  H  H1035  1  0.06292510  0.19187341  0.74590578  1
  H  H1036  1  0.52073307  0.79772554  0.69112904  1
  O  O1037  1  0.48637979  0.77935296  0.67250681  1
  C  C1038  1  0.46194886  0.74646224  0.71070252  1
  C  C1039  1  0.49011760  0.73835349  0.76571107  1
  C  C1040  1  0.40819111  0.72027849  0.69421185  1
  H  H1041  1  0.53164410  0.75851759  0.77943664  1
  C  C1042  1  0.46460328  0.70415761  0.80353241  1
  C  C1043  1  0.38271919  0.68583653  0.73161243  1
  H  H1044  1  0.38585522  0.72669110  0.65178937  1
  H  H1045  1  0.48671033  0.69809876  0.84607971  1
  C  C1046  1  0.41084031  0.67799123  0.78674386  1
  O  O1047  1  0.33055189  0.66053237  0.71347829  1
  H  H1048  1  0.39125941  0.65166596  0.81658353  1
  H  H1049  1  0.31292458  0.64145992  0.74590631  1
  H  H1050  1  0.97926795  0.20227479  0.56612824  1
  O  O1051  1  1.01361884  0.22064690  0.54750733  1
  C  C1052  1  1.03805347  0.25353870  0.58569988  1
  C  C1053  1  1.00987994  0.26164584  0.64071301  1
  C  C1054  1  1.09180616  0.27972118  0.56921442  1
  H  H1055  1  0.96835675  0.24148303  0.65443632  1
  C  C1056  1  1.03539888  0.29584248  0.67853056  1
  C  C1057  1  1.11728285  0.31416372  0.60661011  1
  H  H1058  1  1.11414515  0.27330909  0.52678804  1
  H  H1059  1  1.01328978  0.30190103  0.72108060  1
  C  C1060  1  1.08915761  0.32200861  0.66174569  1
  O  O1061  1  1.16944705  0.33946719  0.58847896  1
  H  H1062  1  1.10874135  0.34833362  0.69158368  1
  H  H1063  1  1.18707555  0.35854032  0.62090619  1
  H  H1064  1  0.72926780  0.63105922  0.81612911  1
  O  O1065  1  0.76362046  0.61268753  0.79750761  1
  C  C1066  1  0.78805224  0.57979537  0.83570289  1
  C  C1067  1  0.75988253  0.57168777  0.89071139  1
  C  C1068  1  0.84180875  0.55361205  0.81921238  1
  H  H1069  1  0.71835638  0.59185123  0.90443686  1
  C  C1070  1  0.78539652  0.53749100  0.92853268  1
  C  C1071  1  0.86728054  0.51917005  0.85661249  1
  H  H1072  1  0.86414535  0.56002470  0.77678954  1
  H  H1073  1  0.76328958  0.53143223  0.97107967  1
  C  C1074  1  0.83915980  0.51132461  0.91174413  1
  O  O1075  1  0.91944844  0.49386508  0.83847914  1
  H  H1076  1  0.85874013  0.48499905  0.94158359  1
  H  H1077  1  0.93707507  0.47479343  0.87090616  1
  H  H1078  1  0.27073211  0.03560729  0.94112933  1
  O  O1079  1  0.23637959  0.05397943  0.92250688  1
  C  C1080  1  0.21194844  0.08687143  0.96070364  1
  C  C1081  1  0.24011709  0.09497912  1.01571030  1
  C  C1082  1  0.15819101  0.11305437  0.94421082  1
  H  H1083  1  0.28164379  0.07481551  1.02943682  1
  C  C1084  1  0.21460319  0.12917592  1.05353295  1
  C  C1085  1  0.13271955  0.14749726  0.98161361  1
  H  H1086  1  0.13585531  0.10664216  0.90178976  1
  H  H1087  1  0.23670978  0.13523444  1.09607920  1
  C  C1088  1  0.16084021  0.15534178  1.03674262  1
  O  O1089  1  0.08055196  0.17280123  0.96347773  1
  H  H1090  1  0.14125927  0.18166773  1.06658344  1
  H  H1091  1  0.06292471  0.19187374  0.99590622  1
  H  H1092  1  0.52073211  0.79772511  0.94112848  1
  O  O1093  1  0.48638138  0.77935372  0.92250667  1
  C  C1094  1  0.46194753  0.74646106  0.96070248  1
  C  C1095  1  0.49011891  0.73835451  1.01571093  1
  C  C1096  1  0.40819247  0.72027917  0.94421166  1
  H  H1097  1  0.53164399  0.75851717  1.02943650  1
  C  C1098  1  0.46460225  0.70415689  1.05353274  1
  C  C1099  1  0.38271840  0.68583603  0.98161234  1
  H  H1100  1  0.38585525  0.72669102  0.90178891  1
  H  H1101  1  0.48670999  0.69809897  1.09607973  1
  C  C1102  1  0.41084105  0.67799182  1.03674325  1
  O  O1103  1  0.33055212  0.66053254  0.96347815  1
  H  H1104  1  0.39125881  0.65166587  1.06658386  1
  H  H1105  1  0.31292478  0.64145992  0.99590601  1
  H  H1106  1  0.97926681  0.20227415  0.81612853  1
  O  O1107  1  1.01362055  0.22064795  0.79750803  1
  C  C1108  1  1.03805290  0.25353739  0.83569805  1
  C  C1109  1  1.00988028  0.26164704  0.89071476  1
  C  C1110  1  1.09180684  0.27972200  0.81921633  1
  H  H1111  1  0.96835641  0.24148254  0.90443634  1
  C  C1112  1  1.03539842  0.29584155  0.92852921  1
  C  C1113  1  1.11728308  0.31416315  0.85660865  1
  H  H1114  1  1.11414549  0.27330901  0.77678780  1
  H  H1115  1  1.01328909  0.30190112  0.97108146  1
  C  C1116  1  1.08915772  0.32200947  0.91174750  1
  O  O1117  1  1.16944716  0.33946707  0.83847930  1
  H  H1118  1  1.10874078  0.34833329  0.94158349  1
  H  H1119  1  1.18707567  0.35854019  0.87090674  1
  H  H1120  1  0.72926735  0.96439304  0.06612949  1
  O  O1121  1  0.76362166  0.94601979  0.04750813  1
  C  C1122  1  0.78805099  0.91313016  0.08570134  1
  C  C1123  1  0.75988316  0.90501981  0.14071247  1
  C  C1124  1  0.84180960  0.88694430  0.06921360  1
  H  H1125  1  0.71835621  0.92518492  0.15443696  1
  C  C1126  1  0.78539629  0.87082516  0.17853158  1
  C  C1127  1  0.86728015  0.85250421  0.10661129  1
  H  H1128  1  0.86414517  0.89335801  0.02678904  1
  H  H1129  1  0.76328958  0.86476554  0.22108011  1
  C  C1130  1  0.83915991  0.84465679  0.16174497  1
  O  O1131  1  0.91944873  0.82719805  0.08847911  1
  H  H1132  1  0.85874007  0.81833278  0.19158328  1
  H  H1133  1  0.93707501  0.80812683  0.12090585  1
  H  H1134  1  0.27073211  0.36894047  0.19112933  1
  O  O1135  1  0.23637906  0.38731309  0.17250697  1
  C  C1136  1  0.21194902  0.42020428  0.21070317  1
  C  C1137  1  0.24011689  0.42831281  0.26571071  1
  C  C1138  1  0.15819054  0.44638815  0.19421142  1
  H  H1139  1  0.28164404  0.40814880  0.27943697  1
  C  C1140  1  0.21460365  0.46250882  0.30353303  1
  C  C1141  1  0.13271999  0.48082994  0.23161315  1
  H  H1142  1  0.13585519  0.43997558  0.15178970  1
  H  H1143  1  0.23670989  0.46856767  0.34607962  1
  C  C1144  1  0.16084004  0.48867558  0.28674337  1
  O  O1145  1  0.08055140  0.50613478  0.21347866  1
  H  H1146  1  0.14125934  0.51500068  0.31658383  1
  H  H1147  1  0.06292487  0.52520689  0.24590616  1
  H  H1148  1  0.52073165  1.13105818  0.19112812  1
  O  O1149  1  0.48638172  1.11268754  0.17250654  1
  C  C1150  1  0.46194727  1.07979395  0.21070313  1
  C  C1151  1  0.49011880  1.07168807  0.26571037  1
  C  C1152  1  0.40819224  1.05361273  0.19421161  1
  H  H1153  1  0.53164410  1.09185048  0.27943663  1
  C  C1154  1  0.46460279  1.03749038  0.30353326  1
  C  C1155  1  0.38271945  1.01916968  0.23161344  1
  H  H1156  1  0.38585508  1.06002425  0.15178922  1
  H  H1157  1  0.48670993  1.03143237  0.34607959  1
  C  C1158  1  0.41084065  1.01132505  0.28674337  1
  O  O1159  1  0.33055152  0.99386547  0.21347913  1
  H  H1160  1  0.39125887  0.98499936  0.31658423  1
  H  H1161  1  0.31292481  0.97479332  0.24590614  1
  H  H1162  1  0.97926738  0.53560797  0.06612890  1
  O  O1163  1  1.01361986  0.55397996  0.04750676  1
  C  C1164  1  1.03805107  0.58687161  0.08570381  1
  C  C1165  1  1.00988279  0.59497943  0.14071006  1
  C  C1166  1  1.09180900  0.61305460  0.06921091  1
  H  H1167  1  0.96835561  0.57481579  0.15443687  1
  C  C1168  1  1.03539592  0.62917585  0.17853354  1
  C  C1169  1  1.11728034  0.64749706  0.10661379  1
  H  H1170  1  1.11414480  0.60664224  0.02678985  1
  H  H1171  1  1.01328989  0.63523450  0.22107929  1
  C  C1172  1  1.08916022  0.65534194  0.16174309  1
  O  O1173  1  1.16944853  0.67280114  0.08847840  1
  H  H1174  1  1.10874067  0.68166751  0.19158398  1
  H  H1175  1  1.18707521  0.69187338  0.12090659  1
  H  H1176  1  0.72926786  0.96439321  0.31612983  1
  O  O1177  1  0.76362132  0.94602038  0.29750671  1
  C  C1178  1  0.78805088  0.91312923  0.33570314  1
  C  C1179  1  0.75988305  0.90502074  0.39071041  1
  C  C1180  1  0.84180920  0.88694557  0.31921074  1
  H  H1181  1  0.71835592  0.92518450  0.40443698  1
  C  C1182  1  0.78539663  0.87082431  0.42853317  1
  C  C1183  1  0.86728037  0.85250277  0.35661314  1
  H  H1184  1  0.86414472  0.89335793  0.27678950  1
  H  H1185  1  0.76329021  0.86476546  0.47107926  1
  C  C1186  1  0.83915951  0.84465797  0.41174288  1
  O  O1187  1  0.91944770  0.82719907  0.33847771  1
  H  H1188  1  0.85874087  0.81833228  0.44158355  1
  H  H1189  1  0.93707547  0.80812599  0.37090641  1
  H  H1190  1  0.27073179  0.36894051  0.44112939  1
  O  O1191  1  0.23637935  0.38731233  0.42250706  1
  C  C1192  1  0.21194844  0.42020461  0.46070386  1
  C  C1193  1  0.24011718  0.42831230  0.51571047  1
  C  C1194  1  0.15819074  0.44638760  0.44421099  1
  H  H1195  1  0.28164402  0.40814888  0.52943699  1
  C  C1196  1  0.21460369  0.46250920  0.55353334  1
  C  C1197  1  0.13271982  0.48083032  0.48161362  1
  H  H1198  1  0.13585499  0.43997545  0.40179003  1
  H  H1199  1  0.23671015  0.46856780  0.59607948  1
  C  C1200  1  0.16084040  0.48867541  0.53674305  1
  O  O1201  1  0.08055172  0.50613461  0.46347869  1
  H  H1202  1  0.14125947  0.51500089  0.56658398  1
  H  H1203  1  0.06292487  0.52520693  0.49590655  1
  H  H1204  1  0.52073239  1.13105809  0.44112821  1
  O  O1205  1  0.48638110  1.11268695  0.42250771  1
  C  C1206  1  0.46194770  1.07979538  0.46070181  1
  C  C1207  1  0.49011806  1.07168681  0.51571200  1
  C  C1208  1  0.40819136  1.05361121  0.44421404  1
  H  H1209  1  0.53164370  1.09185099  0.52943668  1
  C  C1210  1  0.46460356  1.03749148  0.55353191  1
  C  C1211  1  0.38272022  1.01917103  0.48161131  1
  H  H1212  1  0.38585479  1.06002450  0.40178885  1
  H  H1213  1  0.48671050  1.03143229  0.59608006  1
  C  C1214  1  0.41083963  1.01132370  0.53674521  1
  O  O1215  1  0.33055044  0.99386437  0.46348027  1
  H  H1216  1  0.39125986  0.98499978  0.56658351  1
  H  H1217  1  0.31292527  0.97479408  0.49590534  1
  H  H1218  1  0.97926783  0.53560776  0.31612867  1
  O  O1219  1  1.01361964  0.55398055  0.29750723  1
  C  C1220  1  1.03805187  0.58687114  0.33570041  1
  C  C1221  1  1.00988165  0.59497997  0.39071249  1
  C  C1222  1  1.09180764  0.61305531  0.31921342  1
  H  H1223  1  0.96835584  0.57481604  0.40443656  1
  C  C1224  1  1.03539751  0.62917518  0.42853104  1
  C  C1225  1  1.11728148  0.64749634  0.35661051  1
  H  H1226  1  1.11414503  0.60664228  0.27678829  1
  H  H1227  1  1.01328989  0.63523458  0.47108037  1
  C  C1228  1  1.08915874  0.65534283  0.41174525  1
  O  O1229  1  1.16944784  0.67280114  0.33847897  1
  H  H1230  1  1.10874124  0.68166683  0.44158345  1
  H  H1231  1  1.18707532  0.69187355  0.37090567  1
  H  H1232  1  0.72926746  0.96439304  0.56612951  1
  O  O1233  1  0.76362126  0.94601987  0.54750712  1
  C  C1234  1  0.78805110  0.91312966  0.58570209  1
  C  C1235  1  0.75988305  0.90502015  0.64071158  1
  C  C1236  1  0.84180926  0.88694481  0.56921236  1
  H  H1237  1  0.71835592  0.92518467  0.65443695  1
  C  C1238  1  0.78539623  0.87082499  0.67853203  1
  C  C1239  1  0.86727992  0.85250378  0.60661174  1
  H  H1240  1  0.86414495  0.89335793  0.52678899  1
  H  H1241  1  0.76329009  0.86476554  0.72107991  1
  C  C1242  1  0.83916008  0.84465729  0.66174443  1
  O  O1243  1  0.91944850  0.82719814  0.58847886  1
  H  H1244  1  0.85874059  0.81833270  0.69158336  1
  H  H1245  1  0.93707507  0.80812675  0.62090546  1
  H  H1246  1  0.27073139  0.36894072  0.69112920  1
  O  O1247  1  0.23638016  0.38731182  0.67250687  1
  C  C1248  1  0.21194748  0.42020554  0.71070420  1
  C  C1249  1  0.24011792  0.42831171  0.76570996  1
  C  C1250  1  0.15819169  0.44638688  0.69421027  1
  H  H1251  1  0.28164350  0.40814901  0.77943696  1
  C  C1252  1  0.21460290  0.46250983  0.80353372  1
  C  C1253  1  0.13271891  0.48083116  0.73161406  1
  H  H1254  1  0.13585513  0.43997554  0.65178989  1
  H  H1255  1  0.23670996  0.46856775  0.84607929  1
  C  C1256  1  0.16084102  0.48867465  0.78674212  1
  O  O1257  1  0.08055231  0.50613440  0.71347787  1
  H  H1258  1  0.14125914  0.51500136  0.81658400  1
  H  H1259  1  0.06292471  0.52520710  0.74590647  1
  H  H1260  1  0.52073347  1.13105944  0.69112941  1
  O  O1261  1  0.48637859  1.11268501  0.67250744  1
  C  C1262  1  0.46194895  1.07979674  0.71069931  1
  C  C1263  1  0.49011783  1.07168596  0.76571359  1
  C  C1264  1  0.40819162  1.05361054  0.69421469  1
  H  H1265  1  0.53164421  1.09185074  0.77943643  1
  C  C1266  1  0.46460282  1.03749207  0.80353004  1
  C  C1267  1  0.38271882  1.01917095  0.73160959  1
  H  H1268  1  0.38585476  1.06002459  0.65178821  1
  H  H1269  1  0.48671050  1.03143186  0.84608066  1
  C  C1270  1  0.41084082  1.01132327  0.78674633  1
  O  O1271  1  0.33055201  0.99386556  0.71347908  1
  H  H1272  1  0.39125932  0.98499995  0.81658305  1
  H  H1273  1  0.31292461  0.97479323  0.74590599  1
  H  H1274  1  0.97926704  0.53560823  0.56612846  1
  O  O1275  1  1.01361952  0.55398051  0.54750680  1
  C  C1276  1  1.03805062  0.58687097  0.58570303  1
  C  C1277  1  1.00988359  0.59498061  0.64071059  1
  C  C1278  1  1.09181003  0.61305574  0.56921200  1
  H  H1279  1  0.96835538  0.57481541  0.65443674  1
  C  C1280  1  1.03539524  0.62917484  0.67853282  1
  C  C1281  1  1.11727841  0.64749541  0.60661274  1
  H  H1282  1  1.11414469  0.60664236  0.52678915  1
  H  H1283  1  1.01329023  0.63523433  0.72107944  1
  C  C1284  1  1.08916193  0.65534313  0.66174380  1
  O  O1285  1  1.16945001  0.67280258  0.58847954  1
  H  H1286  1  1.10874033  0.68166692  0.69158347  1
  H  H1287  1  1.18707476  0.69187266  0.62090493  1
  H  H1288  1  0.72926610  0.96439338  0.81612989  1
  O  O1289  1  0.76362297  0.94601869  0.79750777  1
  C  C1290  1  0.78804934  0.91313143  0.83570158  1
  C  C1291  1  0.75988464  0.90501838  0.89071234  1
  C  C1292  1  0.84181125  0.88694329  0.81921323  1
  H  H1293  1  0.71835558  0.92518552  0.90443707  1
  C  C1294  1  0.78539475  0.87082617  0.92853152  1
  C  C1295  1  0.86727889  0.85250505  0.85661133  1
  H  H1296  1  0.86414495  0.89335793  0.77678943  1
  H  H1297  1  0.76328975  0.86476554  0.97107998  1
  C  C1298  1  0.83916185  0.84465611  0.91174550  1
  O  O1299  1  0.91944930  0.82719814  0.83847877  1
  H  H1300  1  0.85873956  0.81833304  0.94158296  1
  H  H1301  1  0.93707518  0.80812700  0.87090600  1
  H  H1302  1  0.27073151  0.36894115  0.94112901  1
  O  O1303  1  0.23638083  0.38731169  0.92250667  1
  C  C1304  1  0.21194718  0.42020584  0.96070448  1
  C  C1305  1  0.24011814  0.42831129  1.01570956  1
  C  C1306  1  0.15819197  0.44638671  0.94420987  1
  H  H1307  1  0.28164336  0.40814913  1.02943682  1
  C  C1308  1  0.21460260  0.46251025  1.05353422  1
  C  C1309  1  0.13271884  0.48083137  0.98161424  1
  H  H1310  1  0.13585506  0.43997554  0.90178965  1
  H  H1311  1  0.23670976  0.46856767  1.09607899  1
  C  C1312  1  0.16084107  0.48867427  1.03674167  1
  O  O1313  1  0.08055236  0.50613436  0.96347752  1
  H  H1314  1  0.14125895  0.51500144  1.06658407  1
  H  H1315  1  0.06292473  0.52520714  0.99590633  1
  H  H1316  1  0.52073393  1.13105970  0.94112933  1
  O  O1317  1  0.48637842  1.11268484  0.92250688  1
  C  C1318  1  0.46194940  1.07979631  0.96069996  1
  C  C1319  1  0.49011783  1.07168613  1.01571282  1
  C  C1320  1  0.40819165  1.05361147  0.94421334  1
  H  H1321  1  0.53164427  1.09185091  1.02943650  1
  C  C1322  1  0.46460240  1.03749156  1.05353053  1
  C  C1323  1  0.38271754  1.01916968  0.98161024  1
  H  H1324  1  0.38585530  1.06002425  0.90178849  1
  H  H1325  1  0.48671027  1.03143212  1.09608047  1
  C  C1326  1  0.41084142  1.01132420  1.03674535  1
  O  O1327  1  0.33055317  0.99386648  0.96347773  1
  H  H1328  1  0.39125893  0.98499970  1.06658334  1
  H  H1329  1  0.31292407  0.97479281  0.99590675  1
  H  H1330  1  0.97926647  0.53560776  0.81612905  1
  O  O1331  1  1.01362055  0.55398038  0.79750598  1
  C  C1332  1  1.03804902  0.58687114  0.83570589  1
  C  C1333  1  1.00988473  0.59498002  0.89070845  1
  C  C1334  1  1.09181162  0.61305506  0.81920907  1
  H  H1335  1  0.96835493  0.57481550  0.90443707  1
  C  C1336  1  1.03539410  0.62917547  0.92853542  1
  C  C1337  1  1.11727773  0.64749617  0.85661575  1
  H  H1338  1  1.11414423  0.60664236  0.77679069  1
  H  H1339  1  1.01329035  0.63523433  0.97107872  1
  C  C1340  1  1.08916205  0.65534224  0.91174161  1
  O  O1341  1  1.16945001  0.67280190  0.83847856  1
  H  H1342  1  1.10874044  0.68166730  0.94158422  1
  H  H1343  1  1.18707487  0.69187304  0.87090621  1
