# generated using pymatgen
data_H17C19N5O2
_symmetry_space_group_name_H-M   'P 1'
_cell_length_a   32.23000000
_cell_length_b   26.74300000
_cell_length_c   35.17200000
_cell_angle_alpha   90.00000000
_cell_angle_beta   116.78800000
_cell_angle_gamma   90.00000000
_symmetry_Int_Tables_number   1
_chemical_formula_structural   H17C19N5O2
_chemical_formula_sum   'H1088 C1216 N320 O128'
_cell_volume   27062.21943406
_cell_formula_units_Z   64
loop_
 _symmetry_equiv_pos_site_id
 _symmetry_equiv_pos_as_xyz
  1  'x, y, z'
loop_
 _atom_site_type_symbol
 _atom_site_label
 _atom_site_symmetry_multiplicity
 _atom_site_fract_x
 _atom_site_fract_y
 _atom_site_fract_z
 _atom_site_occupancy
  H  H0  1  0.24591085  0.00506023  0.32829806  1
  C  C1  1  0.22478682  0.00959560  0.29431859  1
  C  C2  1  0.20747610  -0.03282249  0.26906895  1
  C  C3  1  0.21572186  0.05736100  0.27628258  1
  H  H4  1  0.21609226  -0.06949017  0.28370212  1
  C  C5  1  0.17958798  -0.02775268  0.22536221  1
  C  C6  1  0.18922266  0.06288159  0.23188056  1
  N  N7  1  0.23430152  0.09854782  0.30292691  1
  H  H8  1  0.16540234  -0.06067592  0.20567729  1
  C  C9  1  0.17018966  0.01990380  0.20706737  1
  N  N10  1  0.18256884  0.11115313  0.21443883  1
  H  H11  1  0.25783729  0.09172339  0.33369714  1
  H  H12  1  0.23789019  0.13081479  0.28925047  1
  H  H13  1  0.14751660  0.02330871  0.17328797  1
  H  H14  1  0.18895973  0.13966306  0.23555675  1
  C  C15  1  0.18142490  0.12530285  0.17582165  1
  O  O16  1  0.17998559  0.09438310  0.14944221  1
  C  C17  1  0.18500467  0.17907164  0.16822834  1
  N  N18  1  0.19031496  0.21142665  0.19948990  1
  C  C19  1  0.18311851  0.19670966  0.12979957  1
  C  C20  1  0.19439782  0.26103322  0.19509554  1
  H  H21  1  0.17848254  0.17119010  0.10416187  1
  C  C22  1  0.18685988  0.24783379  0.12433952  1
  C  C23  1  0.19759853  0.29417251  0.22981317  1
  C  C24  1  0.19302901  0.28025904  0.15741036  1
  H  H25  1  0.18467202  0.26237914  0.09473935  1
  N  N26  1  0.18946899  0.27268384  0.26185899  1
  O  O27  1  0.20577241  0.33889858  0.22916379  1
  H  H28  1  0.19592587  0.32012671  0.15342822  1
  H  H29  1  0.18634799  0.23475910  0.26026206  1
  C  C30  1  0.18088253  0.29518797  0.29366001  1
  C  C31  1  0.18179605  0.26427533  0.32645627  1
  C  C32  1  0.16858559  0.34575464  0.29314676  1
  C  C33  1  0.17151516  0.28430569  0.35791469  1
  N  N34  1  0.19246444  0.21347953  0.32835869  1
  C  C35  1  0.15881148  0.36544909  0.32500483  1
  H  H36  1  0.16493945  0.37029232  0.26738674  1
  H  H37  1  0.17236003  0.26021839  0.38291465  1
  C  C38  1  0.16028708  0.33469451  0.35754974  1
  H  H39  1  0.18604508  0.19145211  0.34882501  1
  H  H40  1  0.19293777  0.19716828  0.30238499  1
  H  H41  1  0.14943259  0.40451399  0.32407929  1
  H  H42  1  0.15231254  0.34965420  0.38219686  1
  H  H43  1  -0.24591091  -0.00506022  -0.32829813  1
  C  C44  1  -0.22478679  -0.00959561  -0.29431853  1
  C  C45  1  -0.20747605  0.03282250  -0.26906891  1
  C  C46  1  -0.21572185  -0.05736091  -0.27628258  1
  H  H47  1  -0.21609230  0.06949021  -0.28370218  1
  C  C48  1  -0.17958808  0.02775265  -0.22536236  1
  C  C49  1  -0.18922270  -0.06288169  -0.23188062  1
  N  N50  1  -0.23430157  -0.09854784  -0.30292704  1
  H  H51  1  -0.16540230  0.06067600  -0.20567729  1
  C  C52  1  -0.17018956  -0.01990374  -0.20706728  1
  N  N53  1  -0.18256889  -0.11115296  -0.21443896  1
  H  H54  1  -0.25783724  -0.09172338  -0.33369714  1
  H  H55  1  -0.23789020  -0.13081483  -0.28925045  1
  H  H56  1  -0.14751660  -0.02330867  -0.17328807  1
  H  H57  1  -0.18895983  -0.13966305  -0.23555679  1
  C  C58  1  -0.18142486  -0.12530286  -0.17582153  1
  O  O59  1  -0.17998549  -0.09438305  -0.14944220  1
  C  C60  1  -0.18500464  -0.17907163  -0.16822834  1
  N  N61  1  -0.19031495  -0.21142668  -0.19948988  1
  C  C62  1  -0.18311851  -0.19670959  -0.12979950  1
  C  C63  1  -0.19439782  -0.26103306  -0.19509553  1
  H  H64  1  -0.17848252  -0.17119004  -0.10416191  1
  C  C65  1  -0.18685988  -0.24783367  -0.12433956  1
  C  C66  1  -0.19759850  -0.29417242  -0.22981330  1
  C  C67  1  -0.19302899  -0.28025911  -0.15741039  1
  H  H68  1  -0.18467200  -0.26237908  -0.09473927  1
  N  N69  1  -0.18946903  -0.27268400  -0.26185897  1
  O  O70  1  -0.20577241  -0.33889855  -0.22916377  1
  H  H71  1  -0.19592587  -0.32012662  -0.15342819  1
  H  H72  1  -0.18634801  -0.23475897  -0.26026206  1
  C  C73  1  -0.18088246  -0.29518797  -0.29365998  1
  C  C74  1  -0.18179602  -0.26427531  -0.32645612  1
  C  C75  1  -0.16858556  -0.34575461  -0.29314691  1
  C  C76  1  -0.17151516  -0.28430569  -0.35791477  1
  N  N77  1  -0.19246433  -0.21347946  -0.32835915  1
  C  C78  1  -0.15881152  -0.36544904  -0.32500479  1
  H  H79  1  -0.16493942  -0.37029232  -0.26738669  1
  H  H80  1  -0.17235998  -0.26021833  -0.38291465  1
  C  C81  1  -0.16028701  -0.33469456  -0.35754963  1
  H  H82  1  -0.18604512  -0.19145218  -0.34882493  1
  H  H83  1  -0.19293768  -0.19716812  -0.30238474  1
  H  H84  1  -0.14943252  -0.40451399  -0.32407925  1
  H  H85  1  -0.15231252  -0.34965422  -0.38219694  1
  H  H86  1  -0.24591090  0.25506027  -0.07829812  1
  C  C87  1  -0.22478679  0.25959547  -0.04431856  1
  C  C88  1  -0.20747609  0.21717768  -0.01906903  1
  C  C89  1  -0.21572180  0.30736147  -0.02628243  1
  H  H90  1  -0.21609228  0.18050981  -0.03370217  1
  C  C91  1  -0.17958799  0.22224725  0.02463777  1
  C  C92  1  -0.18922278  0.31288119  0.01811926  1
  N  N93  1  -0.23430172  0.34854716  -0.05292742  1
  H  H94  1  -0.16540233  0.18932408  0.04432270  1
  C  C95  1  -0.17018964  0.26990400  0.04293266  1
  N  N96  1  -0.18256876  0.36115346  0.03556151  1
  H  H97  1  -0.25783712  0.34172355  -0.08369690  1
  H  H98  1  -0.23789028  0.38081517  -0.03925027  1
  H  H99  1  -0.14751656  0.27330870  0.07671202  1
  H  H100  1  -0.18895980  0.38966304  0.01444317  1
  C  C101  1  -0.18142498  0.37530279  0.07417792  1
  O  O102  1  -0.17998552  0.34438301  0.10055796  1
  C  C103  1  -0.18500462  0.42907173  0.08177180  1
  N  N104  1  -0.19031503  0.46142665  0.05051001  1
  C  C105  1  -0.18311850  0.44670957  0.12020040  1
  C  C106  1  -0.19439788  0.51103306  0.05490461  1
  H  H107  1  -0.17848253  0.42119009  0.14583810  1
  C  C108  1  -0.18685992  0.49783392  0.12566064  1
  C  C109  1  -0.19759873  0.54417291  0.02018654  1
  C  C110  1  -0.19302913  0.53025913  0.09258941  1
  H  H111  1  -0.18467197  0.51237912  0.15526060  1
  N  N112  1  -0.18946905  0.52268341  -0.01185869  1
  O  O113  1  -0.20577250  0.58889826  0.02083615  1
  H  H114  1  -0.19592587  0.57012668  0.09657179  1
  H  H115  1  -0.18634799  0.48475932  -0.01026206  1
  C  C116  1  -0.18088248  0.54518826  -0.04366030  1
  C  C117  1  -0.18179609  0.51427524  -0.07645603  1
  C  C118  1  -0.16858563  0.59575461  -0.04314672  1
  C  C119  1  -0.17151513  0.53430577  -0.10791484  1
  N  N120  1  -0.19246438  0.46347959  -0.07835908  1
  C  C121  1  -0.15881139  0.61544913  -0.07500484  1
  H  H122  1  -0.16493946  0.62029230  -0.01738672  1
  H  H123  1  -0.17236004  0.51021848  -0.13291462  1
  C  C124  1  -0.16028703  0.58469453  -0.10754957  1
  H  H125  1  -0.18604516  0.44145220  -0.09882497  1
  H  H126  1  -0.19293770  0.44716816  -0.05238482  1
  H  H127  1  -0.14943257  0.65451396  -0.07407923  1
  H  H128  1  -0.15231251  0.59965429  -0.13219688  1
  H  H129  1  0.24591093  0.24493979  0.57829816  1
  C  C130  1  0.22478672  0.24040470  0.54431844  1
  C  C131  1  0.20747613  0.28282233  0.51906903  1
  C  C132  1  0.21572190  0.19263852  0.52628256  1
  H  H133  1  0.21609230  0.31949023  0.53370215  1
  C  C134  1  0.17958798  0.27775281  0.47536219  1
  C  C135  1  0.18922267  0.18711905  0.48188064  1
  N  N136  1  0.23430156  0.15145278  0.55292714  1
  H  H137  1  0.16540233  0.31067598  0.45567729  1
  C  C138  1  0.17018963  0.23009584  0.45706734  1
  N  N139  1  0.18256882  0.13884627  0.46443863  1
  H  H140  1  0.25783719  0.15827654  0.58369701  1
  H  H141  1  0.23789027  0.11918496  0.53925036  1
  H  H142  1  0.14751657  0.22669135  0.42328805  1
  H  H143  1  0.18895973  0.11033718  0.48555670  1
  C  C144  1  0.18142484  0.12469734  0.42582192  1
  O  O145  1  0.17998550  0.15561696  0.39944213  1
  C  C146  1  0.18500460  0.07092815  0.41822825  1
  N  N147  1  0.19031495  0.03857346  0.44948989  1
  C  C148  1  0.18311849  0.05329026  0.37979960  1
  C  C149  1  0.19439787  -0.01103324  0.44509559  1
  H  H150  1  0.17848257  0.07881001  0.35416190  1
  C  C151  1  0.18685985  0.00216614  0.37433943  1
  C  C152  1  0.19759851  -0.04417263  0.47981306  1
  C  C153  1  0.19302907  -0.03025901  0.40741054  1
  H  H154  1  0.18467207  -0.01237903  0.34473943  1
  N  N155  1  0.18946897  -0.02268373  0.51185922  1
  O  O156  1  0.20577250  -0.08889845  0.47916385  1
  H  H157  1  0.19592586  -0.07012665  0.40342820  1
  H  H158  1  0.18634793  0.01524090  0.51026199  1
  C  C159  1  0.18088258  -0.04518829  0.54365977  1
  C  C160  1  0.18179610  -0.01427498  0.57645630  1
  C  C161  1  0.16858556  -0.09575439  0.54314709  1
  C  C162  1  0.17151520  -0.03430592  0.60791464  1
  N  N163  1  0.19246441  0.03652023  0.57835933  1
  C  C164  1  0.15881156  -0.11544925  0.57500471  1
  H  H165  1  0.16493951  -0.12029239  0.51738664  1
  H  H166  1  0.17236006  -0.01021827  0.63291475  1
  C  C167  1  0.16028708  -0.08469441  0.60754988  1
  H  H168  1  0.18604522  0.05854785  0.59882492  1
  H  H169  1  0.19293783  0.05283194  0.55238465  1
  H  H170  1  0.14943256  -0.15451390  0.57407927  1
  H  H171  1  0.15231256  -0.09965422  0.63219689  1
  H  H172  1  0.24591084  0.00506029  0.82829796  1
  C  C173  1  0.22478708  0.00959545  0.79431915  1
  C  C174  1  0.20747568  -0.03282240  0.76906857  1
  C  C175  1  0.21572153  0.05736115  0.77628202  1
  H  H176  1  0.21609232  -0.06949028  0.78370225  1
  C  C177  1  0.17958815  -0.02775266  0.72536260  1
  C  C178  1  0.18922311  0.06288168  0.73188132  1
  N  N179  1  0.23430167  0.09854755  0.80292732  1
  H  H180  1  0.16540226  -0.06067604  0.70567720  1
  C  C181  1  0.17018934  0.01990381  0.70706676  1
  N  N182  1  0.18256834  0.11115281  0.71443747  1
  H  H183  1  0.25783730  0.09172348  0.83369707  1
  H  H184  1  0.23789013  0.13081484  0.78925043  1
  H  H185  1  0.14751669  0.02330865  0.67328827  1
  H  H186  1  0.18895986  0.13966339  0.73555707  1
  C  C187  1  0.18142536  0.12530343  0.67582316  1
  O  O188  1  0.17998549  0.09438262  0.64944174  1
  C  C189  1  0.18500469  0.17907158  0.66822828  1
  N  N190  1  0.19031492  0.21142677  0.69948995  1
  C  C191  1  0.18311850  0.19670979  0.62979955  1
  C  C192  1  0.19439801  0.26103300  0.69509546  1
  H  H193  1  0.17848265  0.17119008  0.60416196  1
  C  C194  1  0.18685991  0.24783363  0.62433953  1
  C  C195  1  0.19759877  0.29417234  0.72981358  1
  C  C196  1  0.19302919  0.28025907  0.65741053  1
  H  H197  1  0.18467193  0.26237914  0.59473934  1
  N  N198  1  0.18946894  0.27268402  0.76185860  1
  O  O199  1  0.20577244  0.33889853  0.72916380  1
  H  H200  1  0.19592566  0.32012671  0.65342815  1
  H  H201  1  0.18634793  0.23475905  0.76026213  1
  C  C202  1  0.18088269  0.29518826  0.79366018  1
  C  C203  1  0.18179611  0.26427513  0.82645643  1
  C  C204  1  0.16858571  0.34575448  0.79314677  1
  C  C205  1  0.17151518  0.28430586  0.85791470  1
  N  N206  1  0.19246451  0.21347984  0.82835833  1
  C  C207  1  0.15881134  0.36544920  0.82500492  1
  H  H208  1  0.16493947  0.37029235  0.76738674  1
  H  H209  1  0.17236005  0.26021835  0.88291470  1
  C  C210  1  0.16028695  0.33469440  0.85754953  1
  H  H211  1  0.18604500  0.19145184  0.84882510  1
  H  H212  1  0.19293787  0.19716832  0.80238521  1
  H  H213  1  0.14943265  0.40451394  0.82407934  1
  H  H214  1  0.15231251  0.34965425  0.88219687  1
  H  H215  1  -0.24591092  -0.00506021  0.17170186  1
  C  C216  1  -0.22478684  -0.00959554  0.20568145  1
  C  C217  1  -0.20747620  0.03282243  0.23093095  1
  C  C218  1  -0.21572186  -0.05736115  0.22371743  1
  H  H219  1  -0.21609229  0.06949018  0.21629783  1
  C  C220  1  -0.17958798  0.02775264  0.27463777  1
  C  C221  1  -0.18922260  -0.06288156  0.26811947  1
  N  N222  1  -0.23430171  -0.09854743  0.19707276  1
  H  H223  1  -0.16540232  0.06067596  0.29432272  1
  C  C224  1  -0.17018966  -0.01990384  0.29293257  1
  N  N225  1  -0.18256892  -0.11115323  0.28556090  1
  H  H226  1  -0.25783722  -0.09172349  0.16630303  1
  H  H227  1  -0.23789028  -0.13081494  0.21074960  1
  H  H228  1  -0.14751655  -0.02330871  0.32671202  1
  H  H229  1  -0.18895971  -0.13966291  0.26444330  1
  C  C230  1  -0.18142483  -0.12530271  0.32417865  1
  O  O231  1  -0.17998561  -0.09438313  0.35055768  1
  C  C232  1  -0.18500473  -0.17907181  0.33177159  1
  N  N233  1  -0.19031499  -0.21142670  0.30051015  1
  C  C234  1  -0.18311842  -0.19670968  0.37020051  1
  C  C235  1  -0.19439782  -0.26103308  0.30490452  1
  H  H236  1  -0.17848253  -0.17119003  0.39583810  1
  C  C237  1  -0.18685991  -0.24783376  0.37566049  1
  C  C238  1  -0.19759859  -0.29417267  0.27018669  1
  C  C239  1  -0.19302907  -0.28025900  0.34258953  1
  H  H240  1  -0.18467206  -0.26237905  0.40526064  1
  N  N241  1  -0.18946903  -0.27268368  0.23814106  1
  O  O242  1  -0.20577250  -0.33889844  0.27083625  1
  H  H243  1  -0.19592593  -0.32012662  0.34657176  1
  H  H244  1  -0.18634805  -0.23475914  0.23973795  1
  C  C245  1  -0.18088256  -0.29518829  0.20633998  1
  C  C246  1  -0.18179609  -0.26427495  0.17354372  1
  C  C247  1  -0.16858564  -0.34575441  0.20685315  1
  C  C248  1  -0.17151512  -0.28430589  0.14208528  1
  N  N249  1  -0.19246442  -0.21347982  0.17164126  1
  C  C250  1  -0.15881143  -0.36544915  0.17499520  1
  H  H251  1  -0.16493949  -0.37029241  0.23261331  1
  H  H252  1  -0.17236005  -0.26021830  0.11708536  1
  C  C253  1  -0.16028706  -0.33469442  0.14245033  1
  H  H254  1  -0.18604508  -0.19145202  0.15117494  1
  H  H255  1  -0.19293773  -0.19716819  0.19761514  1
  H  H256  1  -0.14943257  -0.40451394  0.17592073  1
  H  H257  1  -0.15231252  -0.34965418  0.11780315  1
  H  H258  1  -0.24591100  0.25506018  0.42170175  1
  C  C259  1  -0.22478663  0.25959567  0.45568185  1
  C  C260  1  -0.20747621  0.21717748  0.48093091  1
  C  C261  1  -0.21572203  0.30736091  0.47371716  1
  H  H262  1  -0.21609228  0.18050989  0.46629792  1
  C  C263  1  -0.17958800  0.22224725  0.52463787  1
  C  C264  1  -0.18922254  0.31288095  0.51811957  1
  N  N265  1  -0.23430146  0.34854814  0.44707342  1
  H  H266  1  -0.16540233  0.18932417  0.54432265  1
  C  C267  1  -0.17018971  0.26990409  0.54293253  1
  N  N268  1  -0.18256919  0.36115413  0.53556034  1
  H  H269  1  -0.25783744  0.34172328  0.41630271  1
  H  H270  1  -0.23789020  0.38081468  0.46074943  1
  H  H271  1  -0.14751661  0.27330873  0.57671201  1
  H  H272  1  -0.18895963  0.38966251  0.51444359  1
  C  C273  1  -0.18142463  0.37530216  0.57417936  1
  O  O274  1  -0.17998569  0.34438355  0.60055736  1
  C  C275  1  -0.18500455  0.42907178  0.58177181  1
  N  N276  1  -0.19031497  0.46142665  0.55051010  1
  C  C277  1  -0.18311852  0.44670970  0.62020038  1
  C  C278  1  -0.19439782  0.51103319  0.55490459  1
  H  H279  1  -0.17848251  0.42119014  0.64583813  1
  C  C280  1  -0.18685974  0.49783387  0.62566067  1
  C  C281  1  -0.19759830  0.54417233  0.52018689  1
  C  C282  1  -0.19302894  0.53025908  0.59258948  1
  H  H283  1  -0.18467209  0.51237903  0.65526055  1
  N  N284  1  -0.18946915  0.52268390  0.48814088  1
  O  O285  1  -0.20577250  0.58889870  0.52083621  1
  H  H286  1  -0.19592595  0.57012668  0.59657179  1
  H  H287  1  -0.18634802  0.48475905  0.48973792  1
  C  C288  1  -0.18088253  0.54518808  0.45634006  1
  C  C289  1  -0.18179621  0.51427471  0.42354380  1
  C  C290  1  -0.16858548  0.59575461  0.45685324  1
  C  C291  1  -0.17151514  0.53430590  0.39208508  1
  N  N292  1  -0.19246434  0.46348008  0.42164066  1
  C  C293  1  -0.15881148  0.61544913  0.42499509  1
  H  H294  1  -0.16493943  0.62029234  0.48261327  1
  H  H295  1  -0.17236003  0.51021839  0.36708539  1
  C  C296  1  -0.16028703  0.58469453  0.39245045  1
  H  H297  1  -0.18604525  0.44145220  0.40117499  1
  H  H298  1  -0.19293766  0.44716798  0.44761545  1
  H  H299  1  -0.14943238  0.65451396  0.42592083  1
  H  H300  1  -0.15231248  0.59965429  0.36780306  1
  H  H301  1  0.24591084  0.24493974  1.07829806  1
  C  C302  1  0.22478677  0.24040392  1.04431857  1
  C  C303  1  0.20747618  0.28282287  1.01906927  1
  C  C304  1  0.21572181  0.19263948  1.02628242  1
  H  H305  1  0.21609229  0.31948994  1.03370212  1
  C  C306  1  0.17958778  0.27775221  0.97536186  1
  C  C307  1  0.18922262  0.18711773  0.98188043  1
  N  N308  1  0.23430217  0.15145248  1.05292810  1
  H  H309  1  0.16540233  0.31067611  0.95567731  1
  C  C310  1  0.17018999  0.23009671  0.95706800  1
  N  N311  1  0.18256871  0.13884765  0.96443864  1
  H  H312  1  0.25783683  0.15827638  1.08369657  1
  H  H313  1  0.23789023  0.11918494  1.03925030  1
  H  H314  1  0.14751637  0.22669124  0.92328769  1
  H  H315  1  0.18895985  0.11033669  0.98555694  1
  C  C316  1  0.18142505  0.12469667  0.92582205  1
  O  O317  1  0.17998541  0.15561719  0.89944199  1
  C  C318  1  0.18500459  0.07092837  0.91822808  1
  N  N319  1  0.19031496  0.03857333  0.94948997  1
  C  C320  1  0.18311845  0.05329007  0.87979965  1
  C  C321  1  0.19439788  -0.01103314  0.94509549  1
  H  H322  1  0.17848255  0.07881005  0.85416187  1
  C  C323  1  0.18685984  0.00216610  0.87433933  1
  C  C324  1  0.19759859  -0.04417257  0.97981345  1
  C  C325  1  0.19302919  -0.03025907  0.90741063  1
  H  H326  1  0.18467199  -0.01237897  0.84473944  1
  N  N327  1  0.18946899  -0.02268366  1.01185886  1
  O  O328  1  0.20577249  -0.08889862  0.97916375  1
  H  H329  1  0.19592577  -0.07012664  0.90342817  1
  H  H330  1  0.18634799  0.01524093  1.01026208  1
  C  C331  1  0.18088256  -0.04518848  1.04365990  1
  C  C332  1  0.18179601  -0.01427493  1.07645661  1
  C  C333  1  0.16858562  -0.09575437  1.04314703  1
  C  C334  1  0.17151527  -0.03430589  1.10791457  1
  N  N335  1  0.19246446  0.03652021  1.07835843  1
  C  C336  1  0.15881150  -0.11544931  1.07500472  1
  H  H337  1  0.16493949  -0.12029243  1.01738669  1
  H  H338  1  0.17236009  -0.01021832  1.13291480  1
  C  C339  1  0.16028701  -0.08469444  1.10755001  1
  H  H340  1  0.18604513  0.05854803  1.09882520  1
  H  H341  1  0.19293771  0.05283175  1.05238508  1
  H  H342  1  0.14943263  -0.15451388  1.07407936  1
  H  H343  1  0.15231266  -0.09965414  1.13219682  1
  H  H344  1  0.24591085  0.50506025  0.32829810  1
  C  C345  1  0.22478676  0.50959553  0.29431842  1
  C  C346  1  0.20747616  0.46717747  0.26906897  1
  C  C347  1  0.21572184  0.55736131  0.27628258  1
  H  H348  1  0.21609227  0.43050980  0.28370216  1
  C  C349  1  0.17958804  0.47224736  0.22536223  1
  C  C350  1  0.18922257  0.56288092  0.23188064  1
  N  N351  1  0.23430143  0.59854769  0.30292677  1
  H  H352  1  0.16540229  0.43932405  0.20567733  1
  C  C353  1  0.17018952  0.51990406  0.20706731  1
  N  N354  1  0.18256910  0.61115393  0.21443906  1
  H  H355  1  0.25783728  0.59172339  0.33369714  1
  H  H356  1  0.23789014  0.63081488  0.28925038  1
  H  H357  1  0.14751654  0.52330863  0.17328801  1
  H  H358  1  0.18895965  0.63966266  0.23555652  1
  C  C359  1  0.18142449  0.62530200  0.17582108  1
  O  O360  1  0.17998566  0.59438341  0.14944253  1
  C  C361  1  0.18500458  0.67907229  0.16822851  1
  N  N362  1  0.19031498  0.71142622  0.19948978  1
  C  C363  1  0.18311841  0.69670932  0.12979941  1
  C  C364  1  0.19439802  0.76103357  0.19509547  1
  H  H365  1  0.17848259  0.67119007  0.10416191  1
  C  C366  1  0.18685985  0.74783411  0.12433950  1
  C  C367  1  0.19759811  0.79417253  0.22981296  1
  C  C368  1  0.19302906  0.78025861  0.15741047  1
  H  H369  1  0.18467215  0.76237896  0.09473937  1
  N  N370  1  0.18946934  0.77268365  0.26185914  1
  O  O371  1  0.20577248  0.83889872  0.22916369  1
  H  H372  1  0.19592601  0.82012675  0.15342814  1
  H  H373  1  0.18634837  0.73475920  0.26026225  1
  C  C374  1  0.18088226  0.79518859  0.29365958  1
  C  C375  1  0.18179609  0.76427450  0.32645642  1
  C  C376  1  0.16858566  0.84575405  0.29314714  1
  C  C377  1  0.17151503  0.78430646  0.35791442  1
  N  N378  1  0.19246433  0.71348019  0.32835888  1
  C  C379  1  0.15881137  0.86544972  0.32500449  1
  H  H380  1  0.16493936  0.87029254  0.26738648  1
  H  H381  1  0.17236002  0.76021818  0.38291484  1
  C  C382  1  0.16028739  0.83469406  0.35755001  1
  H  H383  1  0.18604515  0.69145213  0.34882509  1
  H  H384  1  0.19293748  0.69716796  0.30238471  1
  H  H385  1  0.14943245  0.90451380  0.32407925  1
  H  H386  1  0.15231245  0.84965435  0.38219690  1
  H  H387  1  -0.24591092  0.49493983  -0.32829825  1
  C  C388  1  -0.22478667  0.49040419  -0.29431832  1
  C  C389  1  -0.20747617  0.53282246  -0.26906903  1
  C  C390  1  -0.21572193  0.44263943  -0.27628275  1
  H  H391  1  -0.21609224  0.56949019  -0.28370218  1
  C  C392  1  -0.17958803  0.52775271  -0.22536224  1
  C  C393  1  -0.18922259  0.43711862  -0.23188049  1
  N  N394  1  -0.23430162  0.40145158  -0.30292677  1
  H  H395  1  -0.16540233  0.56067597  -0.20567734  1
  C  C396  1  -0.17018971  0.48009610  -0.20706746  1
  N  N397  1  -0.18256902  0.38884637  -0.21443936  1
  H  H398  1  -0.25783730  0.40827673  -0.33369721  1
  H  H399  1  -0.23789016  0.36918553  -0.28925061  1
  H  H400  1  -0.14751662  0.47669135  -0.17328799  1
  H  H401  1  -0.18895965  0.36033730  -0.23555654  1
  C  C402  1  -0.18142464  0.37469798  -0.17582089  1
  O  O403  1  -0.17998559  0.40561644  -0.14944260  1
  C  C404  1  -0.18500481  0.32092792  -0.16822870  1
  N  N405  1  -0.19031488  0.28857365  -0.19948973  1
  C  C406  1  -0.18311852  0.30329044  -0.12979946  1
  C  C407  1  -0.19439782  0.23896668  -0.19509553  1
  H  H408  1  -0.17848243  0.32880989  -0.10416189  1
  C  C409  1  -0.18685978  0.25216614  -0.12433956  1
  C  C410  1  -0.19759851  0.20582732  -0.22981319  1
  C  C411  1  -0.19302899  0.21974102  -0.15741044  1
  H  H412  1  -0.18467206  0.23762089  -0.09473936  1
  N  N413  1  -0.18946906  0.22731629  -0.26185916  1
  O  O414  1  -0.20577256  0.16110153  -0.22916386  1
  H  H415  1  -0.19592597  0.17987331  -0.15342829  1
  H  H416  1  -0.18634795  0.26524089  -0.26026202  1
  C  C417  1  -0.18088249  0.20481173  -0.29365977  1
  C  C418  1  -0.18179612  0.23572515  -0.32645650  1
  C  C419  1  -0.16858560  0.15424562  -0.29314697  1
  C  C420  1  -0.17151508  0.21569399  -0.35791454  1
  N  N421  1  -0.19246429  0.28651999  -0.32835892  1
  C  C422  1  -0.15881146  0.13455072  -0.32500468  1
  H  H423  1  -0.16493943  0.12970761  -0.26738665  1
  H  H424  1  -0.17236011  0.23978173  -0.38291480  1
  C  C425  1  -0.16028707  0.16530561  -0.35754986  1
  H  H426  1  -0.18604517  0.30854795  -0.34882501  1
  H  H427  1  -0.19293775  0.30283196  -0.30238486  1
  H  H428  1  -0.14943254  0.09548607  -0.32407933  1
  H  H429  1  -0.15231256  0.15034578  -0.38219686  1
  H  H430  1  -0.24591099  0.75506013  -0.07829832  1
  C  C431  1  -0.22478657  0.75959582  -0.04431808  1
  C  C432  1  -0.20747633  0.71717749  -0.01906931  1
  C  C433  1  -0.21572207  0.80736084  -0.02628297  1
  H  H434  1  -0.21609226  0.68050982  -0.03370213  1
  C  C435  1  -0.17958784  0.72224733  0.02463803  1
  C  C436  1  -0.18922240  0.81288129  0.01811982  1
  N  N437  1  -0.23430133  0.84854798  -0.05292660  1
  H  H438  1  -0.16540235  0.68932403  0.04432264  1
  C  C439  1  -0.17018988  0.76990381  0.04293225  1
  N  N440  1  -0.18256898  0.86115377  0.03556105  1
  H  H441  1  -0.25783736  0.84172323  -0.08369729  1
  H  H442  1  -0.23789017  0.88081476  -0.03925048  1
  H  H443  1  -0.14751648  0.77330870  0.07671215  1
  H  H444  1  -0.18895970  0.88966272  0.01444330  1
  C  C445  1  -0.18142469  0.87530233  0.07417847  1
  O  O446  1  -0.17998557  0.84438316  0.10055782  1
  C  C447  1  -0.18500471  0.92907217  0.08177173  1
  N  N448  1  -0.19031493  0.96142606  0.05051010  1
  C  C449  1  -0.18311850  0.94670925  0.12020036  1
  C  C450  1  -0.19439768  1.01103403  0.05490501  1
  H  H451  1  -0.17848247  0.92119026  0.14583807  1
  C  C452  1  -0.18685997  0.99783404  0.12566065  1
  C  C453  1  -0.19759836  1.04417103  0.02018597  1
  C  C454  1  -0.19302887  1.03025836  0.09258943  1
  H  H455  1  -0.18467203  1.01237897  0.15526052  1
  N  N456  1  -0.18946923  1.02268447  -0.01185785  1
  O  O457  1  -0.20577232  1.08889928  0.02083640  1
  H  H458  1  -0.19592602  1.07012685  0.09657178  1
  H  H459  1  -0.18634820  0.98475886  -0.01026227  1
  C  C460  1  -0.18088228  1.04518852  -0.04366030  1
  C  C461  1  -0.18179600  1.01427532  -0.07645619  1
  C  C462  1  -0.16858568  1.09575424  -0.04314669  1
  C  C463  1  -0.17151513  1.03430558  -0.10791481  1
  N  N464  1  -0.19246431  0.96347967  -0.07835860  1
  C  C465  1  -0.15881141  1.11544930  -0.07500495  1
  H  H466  1  -0.16493944  1.12029229  -0.01738671  1
  H  H467  1  -0.17235996  1.01021838  -0.13291455  1
  C  C468  1  -0.16028695  1.08469470  -0.10754956  1
  H  H469  1  -0.18604486  0.94145205  -0.09882494  1
  H  H470  1  -0.19293769  0.94716820  -0.05238496  1
  H  H471  1  -0.14943265  1.15451382  -0.07407930  1
  H  H472  1  -0.15231257  1.09965428  -0.13219690  1
  H  H473  1  0.24591089  0.74493971  0.57829812  1
  C  C474  1  0.22478667  0.74040411  0.54431863  1
  C  C475  1  0.20747605  0.78282270  0.51906926  1
  C  C476  1  0.21572152  0.69263927  0.52628199  1
  H  H477  1  0.21609231  0.81948994  0.53370203  1
  C  C478  1  0.17958788  0.77775255  0.47536219  1
  C  C479  1  0.18922306  0.68711828  0.48188125  1
  N  N480  1  0.23430196  0.65145231  0.55292790  1
  H  H481  1  0.16540241  0.81067613  0.45567722  1
  C  C482  1  0.17018950  0.73009621  0.45706707  1
  N  N483  1  0.18256804  0.63884741  0.46443673  1
  H  H484  1  0.25783684  0.65827643  0.58369671  1
  H  H485  1  0.23789015  0.61918512  0.53925029  1
  H  H486  1  0.14751656  0.72669137  0.42328813  1
  H  H487  1  0.18895998  0.61033641  0.48555735  1
  C  C488  1  0.18142558  0.62469590  0.42582435  1
  O  O489  1  0.17998535  0.65561797  0.39944126  1
  C  C490  1  0.18500432  0.57092869  0.41822738  1
  N  N491  1  0.19031500  0.53857298  0.44949019  1
  C  C492  1  0.18311842  0.55329015  0.37979991  1
  C  C493  1  0.19439817  0.48896697  0.44509578  1
  H  H494  1  0.17848283  0.57881011  0.35416194  1
  C  C495  1  0.18686005  0.50216611  0.37433951  1
  C  C496  1  0.19759856  0.45582743  0.47981299  1
  C  C497  1  0.19302934  0.46974099  0.40741050  1
  H  H498  1  0.18467191  0.48762100  0.34473936  1
  N  N499  1  0.18946881  0.47731630  0.51185926  1
  O  O500  1  0.20577237  0.41110141  0.47916373  1
  H  H501  1  0.19592550  0.42987330  0.40342804  1
  H  H502  1  0.18634795  0.51524080  0.51026199  1
  C  C503  1  0.18088249  0.45481177  0.54365966  1
  C  C504  1  0.18179612  0.48572497  0.57645626  1
  C  C505  1  0.16858559  0.40424555  0.54314705  1
  C  C506  1  0.17151521  0.46569408  0.60791479  1
  N  N507  1  0.19246434  0.53652017  0.57835921  1
  C  C508  1  0.15881152  0.38455072  0.57500478  1
  H  H509  1  0.16493942  0.37970760  0.51738664  1
  H  H510  1  0.17236000  0.48978164  0.63291463  1
  C  C511  1  0.16028711  0.41530559  0.60754969  1
  H  H512  1  0.18604514  0.55854783  0.59882481  1
  H  H513  1  0.19293776  0.55283191  0.55238473  1
  H  H514  1  0.14943259  0.34548607  0.57407931  1
  H  H515  1  0.15231255  0.40034574  0.63219693  1
  H  H516  1  0.24591100  0.50506029  0.82829834  1
  C  C517  1  0.22478656  0.50959540  0.79431816  1
  C  C518  1  0.20747638  0.46717770  0.76906917  1
  C  C519  1  0.21572198  0.55736149  0.77628278  1
  H  H520  1  0.21609227  0.43050980  0.78370217  1
  C  C521  1  0.17958778  0.47224722  0.72536191  1
  C  C522  1  0.18922255  0.56288105  0.73188056  1
  N  N523  1  0.23430143  0.59854742  0.80292686  1
  H  H524  1  0.16540242  0.43932410  0.70567743  1
  C  C525  1  0.17018979  0.51990402  0.70706759  1
  N  N526  1  0.18256908  0.61115353  0.71443831  1
  H  H527  1  0.25783734  0.59172334  0.83369715  1
  H  H528  1  0.23789013  0.63081510  0.78925028  1
  H  H529  1  0.14751645  0.52330863  0.67328781  1
  H  H530  1  0.18895981  0.63966306  0.73555684  1
  C  C531  1  0.18142459  0.62530240  0.67582217  1
  O  O532  1  0.17998559  0.59438296  0.64944204  1
  C  C533  1  0.18500426  0.67907149  0.66822790  1
  N  N534  1  0.19031500  0.71142743  0.69949018  1
  C  C535  1  0.18311837  0.69670967  0.62979967  1
  C  C536  1  0.19439824  0.76103214  0.69509569  1
  H  H537  1  0.17848261  0.67119011  0.60416185  1
  C  C538  1  0.18685970  0.74783335  0.62433950  1
  C  C539  1  0.19759818  0.79417440  0.72981282  1
  C  C540  1  0.19302924  0.78025977  0.65741030  1
  H  H541  1  0.18467226  0.76237922  0.59473942  1
  N  N542  1  0.18946940  0.77268205  0.76185921  1
  O  O543  1  0.20577263  0.83889739  0.72916403  1
  H  H544  1  0.19592600  0.82012648  0.65342837  1
  H  H545  1  0.18634823  0.73475987  0.76026228  1
  C  C546  1  0.18088213  0.79518868  0.79366003  1
  C  C547  1  0.18179601  0.76427530  0.82645651  1
  C  C548  1  0.16858557  0.84575423  0.79314693  1
  C  C549  1  0.17151521  0.78430610  0.85791432  1
  N  N550  1  0.19246460  0.71347917  0.82835878  1
  C  C551  1  0.15881160  0.86544955  0.82500492  1
  H  H552  1  0.16493943  0.87029236  0.76738651  1
  H  H553  1  0.17235993  0.76021827  0.88291492  1
  C  C554  1  0.16028745  0.83469441  0.85755006  1
  H  H555  1  0.18604483  0.69145226  0.84882510  1
  H  H556  1  0.19293782  0.69716840  0.80238521  1
  H  H557  1  0.14943253  0.90451398  0.82407919  1
  H  H558  1  0.15231256  0.84965444  0.88219695  1
  H  H559  1  -0.24591090  0.49493969  0.17170190  1
  C  C560  1  -0.22478677  0.49040423  0.20568143  1
  C  C561  1  -0.20747607  0.53282246  0.23093106  1
  C  C562  1  -0.21572180  0.44263925  0.22371755  1
  H  H563  1  -0.21609232  0.56949014  0.21629785  1
  C  C564  1  -0.17958798  0.52775249  0.27463784  1
  C  C565  1  -0.18922276  0.43711813  0.26811945  1
  N  N566  1  -0.23430182  0.40145198  0.19707261  1
  H  H567  1  -0.16540234  0.56067597  0.29432274  1
  C  C568  1  -0.17018969  0.48009641  0.29293251  1
  N  N569  1  -0.18256869  0.38884695  0.28556137  1
  H  H570  1  -0.25783712  0.40827650  0.16630306  1
  H  H571  1  -0.23789014  0.36918521  0.21074958  1
  H  H572  1  -0.14751653  0.47669126  0.32671206  1
  H  H573  1  -0.18895980  0.36033688  0.26444318  1
  C  C574  1  -0.18142515  0.37469704  0.32417800  1
  O  O575  1  -0.17998556  0.40561697  0.35055787  1
  C  C576  1  -0.18500469  0.32092816  0.33177175  1
  N  N577  1  -0.19031491  0.28857354  0.30051015  1
  C  C578  1  -0.18311846  0.30329047  0.37020043  1
  C  C579  1  -0.19439783  0.23896664  0.30490466  1
  H  H580  1  -0.17848262  0.32880989  0.39583806  1
  C  C581  1  -0.18685998  0.25216612  0.37566049  1
  C  C582  1  -0.19759864  0.20582790  0.27018644  1
  C  C583  1  -0.19302909  0.21974106  0.34258950  1
  H  H584  1  -0.18467196  0.23762089  0.40526068  1
  N  N585  1  -0.18946888  0.22731606  0.23814136  1
  O  O586  1  -0.20577242  0.16110117  0.27083632  1
  H  H587  1  -0.19592573  0.17987329  0.34657188  1
  H  H588  1  -0.18634800  0.26524098  0.23973797  1
  C  C589  1  -0.18088248  0.20481182  0.20633998  1
  C  C590  1  -0.18179613  0.23572488  0.17354368  1
  C  C591  1  -0.16858568  0.15424557  0.20685308  1
  C  C592  1  -0.17151510  0.21569422  0.14208539  1
  N  N593  1  -0.19246432  0.28652035  0.17164121  1
  C  C594  1  -0.15881145  0.13455078  0.17499524  1
  H  H595  1  -0.16493945  0.12970757  0.23261336  1
  H  H596  1  -0.17236010  0.23978171  0.11708535  1
  C  C597  1  -0.16028707  0.16530564  0.14245027  1
  H  H598  1  -0.18604505  0.30854792  0.15117509  1
  H  H599  1  -0.19293776  0.30283183  0.19761515  1
  H  H600  1  -0.14943264  0.09548608  0.17592069  1
  H  H601  1  -0.15231257  0.15034584  0.11780312  1
  H  H602  1  -0.24591085  0.75506013  0.42170190  1
  C  C603  1  -0.22478683  0.75959546  0.45568151  1
  C  C604  1  -0.20747606  0.71717763  0.48093114  1
  C  C605  1  -0.21572190  0.80736146  0.47371750  1
  H  H606  1  -0.21609226  0.68050973  0.46629788  1
  C  C607  1  -0.17958798  0.72224711  0.52463775  1
  C  C608  1  -0.18922256  0.81288040  0.51811953  1
  N  N609  1  -0.23430164  0.84854771  0.44707288  1
  H  H610  1  -0.16540221  0.68932412  0.54432273  1
  C  C611  1  -0.17018974  0.76990444  0.54293253  1
  N  N612  1  -0.18256910  0.86115502  0.53555984  1
  H  H613  1  -0.25783729  0.84172323  0.41630286  1
  H  H614  1  -0.23789020  0.88081503  0.46074981  1
  H  H615  1  -0.14751653  0.77330861  0.57671209  1
  H  H616  1  -0.18895952  0.88966210  0.51444382  1
  C  C617  1  -0.18142440  0.87530117  0.57418004  1
  O  O618  1  -0.17998560  0.84438405  0.60055725  1
  C  C619  1  -0.18500505  0.92907244  0.58177093  1
  N  N620  1  -0.19031475  0.96142597  0.55051048  1
  C  C621  1  -0.18311857  0.94670933  0.62020057  1
  C  C622  1  -0.19439769  1.01103376  0.55490440  1
  H  H623  1  -0.17848229  0.92119035  0.64583813  1
  C  C624  1  -0.18685961  0.99783404  0.62566055  1
  C  C625  1  -0.19759839  1.04417228  0.52018715  1
  C  C626  1  -0.19302900  1.03025881  0.59258960  1
  H  H627  1  -0.18467209  1.01237915  0.65526063  1
  N  N628  1  -0.18946903  1.02268456  0.48814053  1
  O  O629  1  -0.20577254  1.08889883  0.52083614  1
  H  H630  1  -0.19592610  1.07012685  0.59657171  1
  H  H631  1  -0.18634800  0.98475860  0.48973796  1
  C  C632  1  -0.18088273  1.04518754  0.45634025  1
  C  C633  1  -0.18179602  1.01427541  0.42354373  1
  C  C634  1  -0.16858534  1.09575505  0.45685324  1
  C  C635  1  -0.17151525  1.03430550  0.39208516  1
  N  N636  1  -0.19246428  0.96347976  0.42164100  1
  C  C637  1  -0.15881163  1.11544894  0.42499517  1
  H  H638  1  -0.16493947  1.12029220  0.48261312  1
  H  H639  1  -0.17236007  1.01021838  0.36708539  1
  C  C640  1  -0.16028681  1.08469497  0.39245037  1
  H  H641  1  -0.18604509  0.94145214  0.40117503  1
  H  H642  1  -0.19293779  0.94716811  0.44761533  1
  H  H643  1  -0.14943258  1.15451409  0.42592064  1
  H  H644  1  -0.15231254  1.09965410  0.36780318  1
  H  H645  1  0.24591089  0.74493976  1.07829821  1
  C  C646  1  0.22478679  0.74040478  1.04431849  1
  C  C647  1  0.20747607  0.78282208  1.01906882  1
  C  C648  1  0.21572181  0.69263847  1.02628258  1
  H  H649  1  0.21609229  0.81949038  1.03370220  1
  C  C650  1  0.17958829  0.77775291  0.97536262  1
  C  C651  1  0.18922262  0.68711913  0.98188073  1
  N  N652  1  0.23430141  0.65145240  1.05292674  1
  H  H653  1  0.16540228  0.81067604  0.95567731  1
  C  C654  1  0.17018940  0.73009563  0.95706693  1
  N  N655  1  0.18256897  0.63884621  0.96443887  1
  H  H656  1  0.25783737  0.65827666  1.08369725  1
  H  H657  1  0.23789023  0.61918508  1.03925053  1
  H  H658  1  0.14751671  0.72669132  0.92328822  1
  H  H659  1  0.18895975  0.61033708  0.98555679  1
  C  C660  1  0.18142458  0.62469738  0.92582159  1
  O  O661  1  0.17998566  0.65561695  0.89944214  1
  C  C662  1  0.18500491  0.57092811  0.91822868  1
  N  N663  1  0.19031481  0.53857369  0.94948990  1
  C  C664  1  0.18311848  0.55329046  0.87979905  1
  C  C665  1  0.19439775  0.48896657  0.94509556  1
  H  H666  1  0.17848250  0.57880984  0.85416203  1
  C  C667  1  0.18685975  0.50216602  0.87433964  1
  C  C668  1  0.19759852  0.45582703  0.97981338  1
  C  C669  1  0.19302899  0.46974121  0.90741055  1
  H  H670  1  0.18467210  0.48762096  0.84473929  1
  N  N671  1  0.18946905  0.47731706  1.01185863  1
  O  O672  1  0.20577255  0.41110164  0.97916382  1
  H  H673  1  0.19592599  0.42987312  0.90342817  1
  H  H674  1  0.18634799  0.51524044  1.01026208  1
  C  C675  1  0.18088234  0.45481137  1.04366035  1
  C  C676  1  0.18179620  0.48572514  1.07645578  1
  C  C677  1  0.16858559  0.40424586  1.04314695  1
  C  C678  1  0.17151494  0.46569377  1.10791495  1
  N  N679  1  0.19246424  0.53652012  1.07836010  1
  C  C680  1  0.15881143  0.38455050  1.07500464  1
  H  H681  1  0.16493938  0.37970755  1.01738661  1
  H  H682  1  0.17235998  0.48978159  1.13291465  1
  C  C683  1  0.16028715  0.41530590  1.10754978  1
  H  H684  1  0.18604524  0.55854761  1.09882444  1
  H  H685  1  0.19293778  0.55283209  1.05238448  1
  H  H686  1  0.14943256  0.34548620  1.07407929  1
  H  H687  1  0.15231251  0.40034574  1.13219690  1
  H  H688  1  0.74591095  0.00506026  0.32829817  1
  C  C689  1  0.72478660  0.00959555  0.29431832  1
  C  C690  1  0.70747611  -0.03282241  0.26906912  1
  C  C691  1  0.71572184  0.05736111  0.27628248  1
  H  H692  1  0.71609232  -0.06949017  0.28370210  1
  C  C693  1  0.67958794  -0.02775276  0.22536211  1
  C  C694  1  0.68922286  0.06288127  0.23188079  1
  N  N695  1  0.73430166  0.09854755  0.30292731  1
  H  H696  1  0.66540240  -0.06067594  0.20567729  1
  C  C697  1  0.67018965  0.01990393  0.20706737  1
  N  N698  1  0.68256854  0.11115327  0.21443775  1
  H  H699  1  0.75783719  0.09172345  0.33369695  1
  H  H700  1  0.73789019  0.13081493  0.28925034  1
  H  H701  1  0.64751650  0.02330867  0.17328793  1
  H  H702  1  0.68895990  0.13966324  0.23555704  1
  C  C703  1  0.68142523  0.12530326  0.17582309  1
  O  O704  1  0.67998543  0.09438258  0.14944160  1
  C  C705  1  0.68500442  0.17907148  0.16822779  1
  N  N706  1  0.69031515  0.21142683  0.19949013  1
  C  C707  1  0.68311845  0.19670977  0.12979973  1
  C  C708  1  0.69439802  0.26103306  0.19509553  1
  H  H709  1  0.67848271  0.17118995  0.10416192  1
  C  C710  1  0.68686008  0.24783374  0.12433951  1
  C  C711  1  0.69759855  0.29417238  0.22981340  1
  C  C712  1  0.69302920  0.28025907  0.15741053  1
  H  H713  1  0.68467199  0.26237908  0.09473933  1
  N  N714  1  0.68946900  0.27268373  0.26185874  1
  O  O715  1  0.70577252  0.33889864  0.22916377  1
  H  H716  1  0.69592572  0.32012671  0.15342813  1
  H  H717  1  0.68634800  0.23475912  0.26026206  1
  C  C718  1  0.68088252  0.29518835  0.29366001  1
  C  C719  1  0.68179600  0.26427522  0.32645646  1
  C  C720  1  0.66858566  0.34575435  0.29314684  1
  C  C721  1  0.67151518  0.28430591  0.35791458  1
  N  N722  1  0.69246453  0.21347964  0.32835824  1
  C  C723  1  0.65881142  0.36544929  0.32500479  1
  H  H724  1  0.66493940  0.37029235  0.26738669  1
  H  H725  1  0.67236004  0.26021828  0.38291472  1
  C  C726  1  0.66028714  0.33469444  0.35754970  1
  H  H727  1  0.68604508  0.19145198  0.34882520  1
  H  H728  1  0.69293773  0.19716832  0.30238524  1
  H  H729  1  0.64943252  0.40451394  0.32407925  1
  H  H730  1  0.65231253  0.34965425  0.38219690  1
  H  H731  1  0.25408910  -0.00506025  -0.32829810  1
  C  C732  1  0.27521330  -0.00959551  -0.29431857  1
  C  C733  1  0.29252397  0.03282244  -0.26906899  1
  C  C734  1  0.28427821  -0.05736120  -0.27628241  1
  H  H735  1  0.28390768  0.06949021  -0.28370214  1
  C  C736  1  0.32041210  0.02775271  -0.22536213  1
  C  C737  1  0.31077719  -0.06288130  -0.23188079  1
  N  N738  1  0.26569840  -0.09854744  -0.30292731  1
  H  H739  1  0.33459759  0.06067600  -0.20567727  1
  C  C740  1  0.32981034  -0.01990386  -0.20706733  1
  N  N741  1  0.31743154  -0.11115326  -0.21443769  1
  H  H742  1  0.24216290  -0.09172350  -0.33369695  1
  H  H743  1  0.26210989  -0.13081496  -0.28925028  1
  H  H744  1  0.35248347  -0.02330865  -0.17328795  1
  H  H745  1  0.31104015  -0.13966316  -0.23555698  1
  C  C746  1  0.31857481  -0.12530323  -0.17582303  1
  O  O747  1  0.32001458  -0.09438257  -0.14944170  1
  C  C748  1  0.31499556  -0.17907150  -0.16822772  1
  N  N749  1  0.30968499  -0.21142672  -0.19949011  1
  C  C750  1  0.31688164  -0.19670975  -0.12979981  1
  C  C751  1  0.30560201  -0.26103317  -0.19509543  1
  H  H752  1  0.32151735  -0.17118992  -0.10416184  1
  C  C753  1  0.31313995  -0.24783370  -0.12433940  1
  C  C754  1  0.30240157  -0.29417229  -0.22981342  1
  C  C755  1  0.30697082  -0.28025893  -0.15741068  1
  H  H756  1  0.31532805  -0.26237908  -0.09473935  1
  N  N757  1  0.31053094  -0.27268400  -0.26185884  1
  O  O758  1  0.29422763  -0.33889860  -0.22916371  1
  H  H759  1  0.30407427  -0.32012676  -0.15342811  1
  H  H760  1  0.31365196  -0.23475894  -0.26026210  1
  C  C761  1  0.31911757  -0.29518806  -0.29365979  1
  C  C762  1  0.31820390  -0.26427533  -0.32645654  1
  C  C763  1  0.33141431  -0.34575457  -0.29314693  1
  C  C764  1  0.32848476  -0.28430571  -0.35791450  1
  N  N765  1  0.30753548  -0.21347955  -0.32835839  1
  C  C766  1  0.34118843  -0.36544909  -0.32500491  1
  H  H767  1  0.33506058  -0.37029230  -0.26738669  1
  H  H768  1  0.32764003  -0.26021828  -0.38291476  1
  C  C769  1  0.33971291  -0.33469456  -0.35754970  1
  H  H770  1  0.31395503  -0.19145193  -0.34882516  1
  H  H771  1  0.30706214  -0.19716834  -0.30238524  1
  H  H772  1  0.35056736  -0.40451399  -0.32407929  1
  H  H773  1  0.34768743  -0.34965429  -0.38219694  1
  H  H774  1  0.25408914  0.25506027  -0.07829813  1
  C  C775  1  0.27521325  0.25959551  -0.04431852  1
  C  C776  1  0.29252386  0.21717772  -0.01906900  1
  C  C777  1  0.28427818  0.30736131  -0.02628249  1
  H  H778  1  0.28390773  0.18050981  -0.03370216  1
  C  C779  1  0.32041201  0.22224732  0.02463771  1
  C  C780  1  0.31077724  0.31288121  0.01811922  1
  N  N781  1  0.26569842  0.34854760  -0.05292712  1
  H  H782  1  0.33459771  0.18932410  0.04432273  1
  C  C783  1  0.32981037  0.26990395  0.04293271  1
  N  N784  1  0.31743118  0.36115364  0.03556144  1
  H  H785  1  0.24216275  0.34172348  -0.08369711  1
  H  H786  1  0.26210975  0.38081495  -0.03925045  1
  H  H787  1  0.35248336  0.27330873  0.07671196  1
  H  H788  1  0.31104026  0.38966300  0.01444323  1
  C  C789  1  0.31857511  0.37530243  0.07417820  1
  O  O790  1  0.32001440  0.34438330  0.10055767  1
  C  C791  1  0.31499525  0.42907231  0.08177147  1
  N  N792  1  0.30968509  0.46142607  0.05051021  1
  C  C793  1  0.31688148  0.44670948  0.12020053  1
  C  C794  1  0.30560213  0.51103377  0.05490457  1
  H  H795  1  0.32151744  0.42119014  0.14583807  1
  C  C796  1  0.31314009  0.49783405  0.12566041  1
  C  C797  1  0.30240142  0.54417197  0.02018656  1
  C  C798  1  0.30697105  0.53025868  0.09258953  1
  H  H799  1  0.31532796  0.51237916  0.15526065  1
  N  N800  1  0.31053101  0.52268390  -0.01185870  1
  O  O801  1  0.29422752  0.58889897  0.02083621  1
  H  H802  1  0.30407409  0.57012691  0.09657180  1
  H  H803  1  0.31365198  0.48475923  -0.01026206  1
  C  C804  1  0.31911750  0.54518848  -0.04366001  1
  C  C805  1  0.31820393  0.51427502  -0.07645635  1
  C  C806  1  0.33141429  0.59575430  -0.04314698  1
  C  C807  1  0.32848489  0.53430604  -0.10791462  1
  N  N808  1  0.30753562  0.46347986  -0.07835880  1
  C  C809  1  0.34118872  0.61544944  -0.07500465  1
  H  H810  1  0.33506057  0.62029248  -0.01738665  1
  H  H811  1  0.32763997  0.51021830  -0.13291467  1
  C  C812  1  0.33971302  0.58469426  -0.10754972  1
  H  H813  1  0.31395482  0.44145206  -0.09882500  1
  H  H814  1  0.30706240  0.44716812  -0.05238488  1
  H  H815  1  0.35056745  0.65451387  -0.07407928  1
  H  H816  1  0.34768750  0.59965424  -0.13219688  1
  H  H817  1  0.74591099  0.24493976  0.57829823  1
  C  C818  1  0.72478664  0.24040432  0.54431825  1
  C  C819  1  0.70747620  0.28282249  0.51906915  1
  C  C820  1  0.71572206  0.19263910  0.52628283  1
  H  H821  1  0.71609229  0.31949012  0.53370211  1
  C  C822  1  0.67958797  0.27775274  0.47536200  1
  C  C823  1  0.68922252  0.18711853  0.48188038  1
  N  N824  1  0.73430141  0.15145195  0.55292657  1
  H  H825  1  0.66540234  0.31067582  0.45567737  1
  C  C826  1  0.67018970  0.23009608  0.45706753  1
  N  N827  1  0.68256894  0.13884659  0.46443885  1
  H  H828  1  0.75783751  0.15827670  0.58369735  1
  H  H829  1  0.73789023  0.11918532  0.53925055  1
  H  H830  1  0.64751662  0.22669131  0.42328801  1
  H  H831  1  0.68895970  0.11033708  0.48555670  1
  C  C832  1  0.68142483  0.12469733  0.42582158  1
  O  O833  1  0.67998559  0.15561684  0.39944228  1
  C  C834  1  0.68500469  0.07092807  0.41822841  1
  N  N835  1  0.69031504  0.03857344  0.44948981  1
  C  C836  1  0.68311856  0.05329029  0.37979949  1
  C  C837  1  0.69439782  -0.01103310  0.44509563  1
  H  H838  1  0.67848248  0.07880994  0.35416190  1
  C  C839  1  0.68685991  0.00216610  0.37433974  1
  C  C840  1  0.69759874  -0.04417284  0.47981340  1
  C  C841  1  0.69302899  -0.03025899  0.40741031  1
  H  H842  1  0.68467203  -0.01237915  0.34473924  1
  N  N843  1  0.68946909  -0.02268348  0.51185869  1
  O  O844  1  0.70577254  -0.08889836  0.47916385  1
  H  H845  1  0.69592598  -0.07012667  0.40342827  1
  H  H846  1  0.68634799  0.01524075  0.51026210  1
  C  C847  1  0.68088247  -0.04518836  0.54366019  1
  C  C848  1  0.68179607  -0.01427515  0.57645599  1
  C  C849  1  0.66858572  -0.09575438  0.54314702  1
  C  C850  1  0.67151526  -0.03430579  0.60791479  1
  N  N851  1  0.69246437  0.03652048  0.57835933  1
  C  C852  1  0.65881140  -0.11544918  0.57500482  1
  H  H853  1  0.66493950  -0.12029242  0.51738664  1
  H  H854  1  0.67236004  -0.01021836  0.63291471  1
  C  C855  1  0.66028707  -0.08469441  0.60754969  1
  H  H856  1  0.68604523  0.05854775  0.59882488  1
  H  H857  1  0.69293758  0.05283192  0.55238462  1
  H  H858  1  0.64943252  -0.15451397  0.57407924  1
  H  H859  1  0.65231255  -0.09965426  0.63219693  1
  H  H860  1  0.74591097  0.00506017  0.82829826  1
  C  C861  1  0.72478664  0.00959586  0.79431801  1
  C  C862  1  0.70747652  -0.03282249  0.76906948  1
  C  C863  1  0.71572219  0.05736103  0.77628323  1
  H  H864  1  0.71609218  -0.06949017  0.78370210  1
  C  C865  1  0.67958771  -0.02775278  0.72536176  1
  C  C866  1  0.68922227  0.06288126  0.73187972  1
  N  N867  1  0.73430153  0.09854785  0.80292671  1
  H  H868  1  0.66540227  -0.06067576  0.70567743  1
  C  C869  1  0.67018981  0.01990414  0.70706774  1
  N  N870  1  0.68256924  0.11115374  0.71443968  1
  H  H871  1  0.75783738  0.09172335  0.83369723  1
  H  H872  1  0.73789025  0.13081479  0.78925035  1
  H  H873  1  0.64751656  0.02330876  0.67328781  1
  H  H874  1  0.68895966  0.13966263  0.73555638  1
  C  C875  1  0.68142449  0.12530246  0.67582058  1
  O  O876  1  0.67998555  0.09438339  0.64944250  1
  C  C877  1  0.68500479  0.17907207  0.66822896  1
  N  N878  1  0.69031496  0.21142641  0.69948964  1
  C  C879  1  0.68311832  0.19670955  0.62979914  1
  C  C880  1  0.69439778  0.26103320  0.69509569  1
  H  H881  1  0.67848237  0.17119022  0.60416181  1
  C  C882  1  0.68685981  0.24783385  0.62433976  1
  C  C883  1  0.69759828  0.29417283  0.72981282  1
  C  C884  1  0.69302903  0.28025904  0.65741022  1
  H  H885  1  0.68467207  0.26237921  0.59473923  1
  N  N886  1  0.68946932  0.27268364  0.76185929  1
  O  O887  1  0.70577267  0.33889851  0.72916395  1
  H  H888  1  0.69592615  0.32012676  0.65342830  1
  H  H889  1  0.68634805  0.23475919  0.76026205  1
  C  C890  1  0.68088250  0.29518831  0.79365957  1
  C  C891  1  0.68179597  0.26427524  0.82645666  1
  C  C892  1  0.66858556  0.34575432  0.79314715  1
  C  C893  1  0.67151520  0.28430575  0.85791417  1
  N  N894  1  0.69246450  0.21347953  0.82835848  1
  C  C895  1  0.65881155  0.36544924  0.82500454  1
  H  H896  1  0.66493946  0.37029243  0.76738659  1
  H  H897  1  0.67236006  0.26021828  0.88291485  1
  C  C898  1  0.66028722  0.33469444  0.85755006  1
  H  H899  1  0.68604503  0.19145204  0.84882510  1
  H  H900  1  0.69293783  0.19716834  0.80238514  1
  H  H901  1  0.64943251  0.40451399  0.82407926  1
  H  H902  1  0.65231250  0.34965420  0.88219680  1
  H  H903  1  0.25408910  -0.00506030  0.17170195  1
  C  C904  1  0.27521332  -0.00959552  0.20568141  1
  C  C905  1  0.29252407  0.03282241  0.23093110  1
  C  C906  1  0.28427839  -0.05736103  0.22371789  1
  H  H907  1  0.28390764  0.06949012  0.21629787  1
  C  C908  1  0.32041210  0.02775276  0.27463781  1
  C  C909  1  0.31077693  -0.06288117  0.26811877  1
  N  N910  1  0.26569827  -0.09854759  0.19707248  1
  H  H911  1  0.33459760  0.06067602  0.29432276  1
  C  C912  1  0.32981052  -0.01990397  0.29293293  1
  N  N913  1  0.31743178  -0.11115344  0.28556318  1
  H  H914  1  0.24216295  -0.09172354  0.16630316  1
  H  H915  1  0.26210991  -0.13081490  0.21074973  1
  H  H916  1  0.35248351  -0.02330861  0.32671195  1
  H  H917  1  0.31104008  -0.13966331  0.26444282  1
  C  C918  1  0.31857462  -0.12530347  0.32417592  1
  O  O919  1  0.32001461  -0.09438220  0.35055867  1
  C  C920  1  0.31499568  -0.17907161  0.33177247  1
  N  N921  1  0.30968501  -0.21142672  0.30050987  1
  C  C922  1  0.31688166  -0.19670977  0.37020021  1
  C  C923  1  0.30560182  -0.26103329  0.30490447  1
  H  H924  1  0.32151716  -0.17118990  0.39583806  1
  C  C925  1  0.31313998  -0.24783370  0.37566045  1
  C  C926  1  0.30240153  -0.29417240  0.27018677  1
  C  C927  1  0.30697062  -0.28025884  0.34258938  1
  H  H928  1  0.31532801  -0.26237905  0.40526064  1
  N  N929  1  0.31053104  -0.27268379  0.23814100  1
  O  O930  1  0.29422772  -0.33889853  0.27083628  1
  H  H931  1  0.30407445  -0.32012678  0.34657195  1
  H  H932  1  0.31365190  -0.23475917  0.23973792  1
  C  C933  1  0.31911762  -0.29518824  0.20634021  1
  C  C934  1  0.31820401  -0.26427509  0.17354357  1
  C  C935  1  0.33141440  -0.34575448  0.20685304  1
  C  C936  1  0.32848483  -0.28430589  0.14208539  1
  N  N937  1  0.30753565  -0.21347980  0.17164128  1
  C  C938  1  0.34118850  -0.36544918  0.17499516  1
  H  H939  1  0.33506057  -0.37029232  0.23261331  1
  H  H940  1  0.32764004  -0.26021828  0.11708527  1
  C  C941  1  0.33971288  -0.33469451  0.14245024  1
  H  H942  1  0.31395493  -0.19145202  0.15117494  1
  H  H943  1  0.30706232  -0.19716808  0.19761504  1
  H  H944  1  0.35056746  -0.40451394  0.17592073  1
  H  H945  1  0.34768745  -0.34965422  0.11780312  1
  H  H946  1  0.25408915  0.25506023  0.42170198  1
  C  C947  1  0.27521306  0.25959547  0.45568128  1
  C  C948  1  0.29252401  0.21717768  0.48093114  1
  C  C949  1  0.28427841  0.30736123  0.47371799  1
  H  H950  1  0.28390770  0.18050975  0.46629788  1
  C  C951  1  0.32041194  0.22224721  0.52463764  1
  C  C952  1  0.31077704  0.31288130  0.51811896  1
  N  N953  1  0.26569793  0.34854736  0.44707209  1
  H  H954  1  0.33459767  0.18932417  0.54432273  1
  C  C955  1  0.32981052  0.26990391  0.54293295  1
  N  N956  1  0.31743122  0.36115358  0.53556110  1
  H  H957  1  0.24216309  0.34172355  0.41630332  1
  H  H958  1  0.26210973  0.38081517  0.46074977  1
  H  H959  1  0.35248336  0.27330873  0.57671190  1
  H  H960  1  0.31104026  0.38966286  0.51444332  1
  C  C961  1  0.31857508  0.37530261  0.57417867  1
  O  O962  1  0.32001447  0.34438328  0.60055767  1
  C  C963  1  0.31499520  0.42907178  0.58177139  1
  N  N964  1  0.30968509  0.46142678  0.55051022  1
  C  C965  1  0.31688146  0.44670979  0.62020061  1
  C  C966  1  0.30560213  0.51103288  0.55490440  1
  H  H967  1  0.32151754  0.42119014  0.64583813  1
  C  C968  1  0.31314016  0.49783369  0.62566029  1
  C  C969  1  0.30240134  0.54417260  0.52018643  1
  C  C970  1  0.30697100  0.53025926  0.59258975  1
  H  H971  1  0.31532797  0.51237925  0.65526078  1
  N  N972  1  0.31053100  0.52268346  0.48814160  1
  O  O973  1  0.29422751  0.58889853  0.52083621  1
  H  H974  1  0.30407410  0.57012668  0.59657175  1
  H  H975  1  0.31365210  0.48475927  0.48973796  1
  C  C976  1  0.31911753  0.54518830  0.45633957  1
  C  C977  1  0.31820388  0.51427542  0.42354407  1
  C  C978  1  0.33141424  0.59575439  0.45685320  1
  C  C979  1  0.32848480  0.53430568  0.39208504  1
  N  N980  1  0.30753560  0.46347950  0.42164093  1
  C  C981  1  0.34118865  0.61544931  0.42499521  1
  H  H982  1  0.33506053  0.62029239  0.48261331  1
  H  H983  1  0.32763990  0.51021843  0.36708535  1
  C  C984  1  0.33971292  0.58469449  0.39245037  1
  H  H985  1  0.31395479  0.44145220  0.40117503  1
  H  H986  1  0.30706234  0.44716821  0.44761522  1
  H  H987  1  0.35056738  0.65451392  0.42592071  1
  H  H988  1  0.34768743  0.59965429  0.36780310  1
  H  H989  1  0.74591092  0.24493992  1.07829828  1
  C  C990  1  0.72478674  0.24040397  1.04431834  1
  C  C991  1  0.70747630  0.28282287  1.01906912  1
  C  C992  1  0.71572191  0.19263966  1.02628273  1
  H  H993  1  0.71609218  0.31949003  1.03370212  1
  C  C994  1  0.67958798  0.27775221  0.97536209  1
  C  C995  1  0.68922231  0.18711778  0.98187990  1
  N  N996  1  0.73430183  0.15145163  1.05292704  1
  H  H997  1  0.66540216  0.31067600  0.95567723  1
  C  C998  1  0.67018959  0.23009660  0.95706754  1
  N  N999  1  0.68256932  0.13884724  0.96444038  1
  H  H1000  1  0.75783717  0.15827671  1.08369702  1
  H  H1001  1  0.73789022  0.11918540  1.03925045  1
  H  H1002  1  0.64751672  0.22669124  0.92328807  1
  H  H1003  1  0.68895970  0.11033725  0.98555641  1
  C  C1004  1  0.68142434  0.12469767  0.92581977  1
  O  O1005  1  0.67998556  0.15561628  0.89944275  1
  C  C1006  1  0.68500499  0.07092828  0.91822846  1
  N  N1007  1  0.69031489  0.03857310  0.94948990  1
  C  C1008  1  0.68311868  0.05329043  0.87979973  1
  C  C1009  1  0.69439765  -0.01103328  0.94509534  1
  H  H1010  1  0.67848219  0.07880987  0.85416172  1
  C  C1011  1  0.68685972  0.00216614  0.87433956  1
  C  C1012  1  0.69759841  -0.04417175  0.97981345  1
  C  C1013  1  0.69302886  -0.03025901  0.90741048  1
  H  H1014  1  0.68467220  -0.01237915  0.84473937  1
  N  N1015  1  0.68946917  -0.02268442  1.01185886  1
  O  O1016  1  0.70577258  -0.08889885  0.97916382  1
  H  H1017  1  0.69592632  -0.07012660  0.90342840  1
  H  H1018  1  0.68634792  0.01524104  1.01026200  1
  C  C1019  1  0.68088251  -0.04518824  1.04365975  1
  C  C1020  1  0.68179616  -0.01427487  1.07645638  1
  C  C1021  1  0.66858561  -0.09575441  1.04314703  1
  C  C1022  1  0.67151500  -0.03430586  1.10791465  1
  N  N1023  1  0.69246424  0.03652015  1.07835881  1
  C  C1024  1  0.65881152  -0.11544926  1.07500464  1
  H  H1025  1  0.66493944  -0.12029241  1.01738661  1
  H  H1026  1  0.67236005  -0.01021843  1.13291465  1
  C  C1027  1  0.66028700  -0.08469434  1.10754970  1
  H  H1028  1  0.68604512  0.05854796  1.09882505  1
  H  H1029  1  0.69293786  0.05283186  1.05238493  1
  H  H1030  1  0.64943266  -0.15451394  1.07407936  1
  H  H1031  1  0.65231255  -0.09965426  1.13219690  1
  H  H1032  1  0.74591099  0.50506029  0.32829817  1
  C  C1033  1  0.72478649  0.50959571  0.29431834  1
  C  C1034  1  0.70747615  0.46717743  0.26906912  1
  C  C1035  1  0.71572200  0.55736118  0.27628265  1
  H  H1036  1  0.71609230  0.43050993  0.28370206  1
  C  C1037  1  0.67958793  0.47224736  0.22536215  1
  C  C1038  1  0.68922276  0.56288168  0.23188081  1
  N  N1039  1  0.73430139  0.59854729  0.30292706  1
  H  H1040  1  0.66540229  0.43932397  0.20567721  1
  C  C1041  1  0.67018951  0.51990370  0.20706724  1
  N  N1042  1  0.68256840  0.61115295  0.21443731  1
  H  H1043  1  0.75783728  0.59172343  0.33369706  1
  H  H1044  1  0.73789010  0.63081510  0.28925023  1
  H  H1045  1  0.64751652  0.52330868  0.17328797  1
  H  H1046  1  0.68895985  0.63966342  0.23555717  1
  C  C1047  1  0.68142511  0.62530338  0.17582338  1
  O  O1048  1  0.67998548  0.59438230  0.14944155  1
  C  C1049  1  0.68500472  0.67907198  0.16822804  1
  N  N1050  1  0.69031484  0.71142578  0.19949003  1
  C  C1051  1  0.68311849  0.69670932  0.12979965  1
  C  C1052  1  0.69439812  0.76103428  0.19509513  1
  H  H1053  1  0.67848264  0.67119002  0.10416193  1
  C  C1054  1  0.68685992  0.74783429  0.12433933  1
  C  C1055  1  0.69759834  0.79417137  0.22981380  1
  C  C1056  1  0.69302919  0.78025799  0.15741080  1
  H  H1057  1  0.68467196  0.76237887  0.09473942  1
  N  N1058  1  0.68946907  0.77268401  0.26185829  1
  O  O1059  1  0.70577240  0.83889926  0.22916360  1
  H  H1060  1  0.69592574  0.82012719  0.15342803  1
  H  H1061  1  0.68634811  0.73475911  0.26026213  1
  C  C1062  1  0.68088224  0.79518823  0.29366018  1
  C  C1063  1  0.68179613  0.76427521  0.32645650  1
  C  C1064  1  0.66858572  0.84575432  0.29314672  1
  C  C1065  1  0.67151509  0.78430566  0.35791469  1
  N  N1066  1  0.69246437  0.71347952  0.32835843  1
  C  C1067  1  0.65881136  0.86544910  0.32500491  1
  H  H1068  1  0.66493935  0.87029245  0.26738665  1
  H  H1069  1  0.67235993  0.76021827  0.38291457  1
  C  C1070  1  0.66028695  0.83469468  0.35754940  1
  H  H1071  1  0.68604489  0.69145213  0.34882497  1
  H  H1072  1  0.69293783  0.69716831  0.30238514  1
  H  H1073  1  0.64943261  0.90451389  0.32407929  1
  H  H1074  1  0.65231246  0.84965417  0.38219690  1
  H  H1075  1  0.25408902  0.49493974  -0.32829825  1
  C  C1076  1  0.27521348  0.49040427  -0.29431821  1
  C  C1077  1  0.29252383  0.53282242  -0.26906912  1
  C  C1078  1  0.28427805  0.44263934  -0.27628273  1
  H  H1079  1  0.28390771  0.56949014  -0.28370216  1
  C  C1080  1  0.32041202  0.52775249  -0.22536213  1
  C  C1081  1  0.31077736  0.43711835  -0.23188060  1
  N  N1082  1  0.26569859  0.40145185  -0.30292668  1
  H  H1083  1  0.33459769  0.56067602  -0.20567729  1
  C  C1084  1  0.32981034  0.48009623  -0.20706741  1
  N  N1085  1  0.31743128  0.38884686  -0.21443814  1
  H  H1086  1  0.24216257  0.40827668  -0.33369725  1
  H  H1087  1  0.26210989  0.36918528  -0.28925049  1
  H  H1088  1  0.35248345  0.47669135  -0.17328799  1
  H  H1089  1  0.31104019  0.36033686  -0.23555689  1
  C  C1090  1  0.31857501  0.37469682  -0.17582256  1
  O  O1091  1  0.32001451  0.40561733  -0.14944183  1
  C  C1092  1  0.31499549  0.32092821  -0.16822817  1
  N  N1093  1  0.30968503  0.28857367  -0.19948986  1
  C  C1094  1  0.31688160  0.30329029  -0.12979951  1
  C  C1095  1  0.30560194  0.23896637  -0.19509556  1
  H  H1096  1  0.32151741  0.32880992  -0.10416193  1
  C  C1097  1  0.31314010  0.25216621  -0.12433962  1
  C  C1098  1  0.30240153  0.20582777  -0.22981296  1
  C  C1099  1  0.30697088  0.21974124  -0.15741048  1
  H  H1100  1  0.31532798  0.23762087  -0.09473934  1
  N  N1101  1  0.31053096  0.22731582  -0.26185962  1
  O  O1102  1  0.29422742  0.16110129  -0.22916384  1
  H  H1103  1  0.30407414  0.17987325  -0.15342824  1
  H  H1104  1  0.31365187  0.26524112  -0.26026204  1
  C  C1105  1  0.31911740  0.20481204  -0.29365952  1
  C  C1106  1  0.31820403  0.23572497  -0.32645665  1
  C  C1107  1  0.33141443  0.15424550  -0.29314714  1
  C  C1108  1  0.32848481  0.21569413  -0.35791454  1
  N  N1109  1  0.30753557  0.28652017  -0.32835843  1
  C  C1110  1  0.34118851  0.13455069  -0.32500460  1
  H  H1111  1  0.33506054  0.12970756  -0.26738661  1
  H  H1112  1  0.32763994  0.23978167  -0.38291472  1
  C  C1113  1  0.33971289  0.16530559  -0.35754989  1
  H  H1114  1  0.31395484  0.30854799  -0.34882524  1
  H  H1115  1  0.30706238  0.30283189  -0.30238505  1
  H  H1116  1  0.35056751  0.09548614  -0.32407929  1
  H  H1117  1  0.34768743  0.15034577  -0.38219686  1
  H  H1118  1  0.25408918  0.75506031  -0.07829802  1
  C  C1119  1  0.27521325  0.75959528  -0.04431868  1
  C  C1120  1  0.29252400  0.71717785  -0.01906884  1
  C  C1121  1  0.28427840  0.80736111  -0.02628206  1
  H  H1122  1  0.28390771  0.68050977  -0.03370217  1
  C  C1123  1  0.32041201  0.72224706  0.02463765  1
  C  C1124  1  0.31077708  0.81288031  0.01811893  1
  N  N1125  1  0.26569808  0.84854833  -0.05292733  1
  H  H1126  1  0.33459762  0.68932416  0.04432270  1
  C  C1127  1  0.32981026  0.76990444  0.04293260  1
  N  N1128  1  0.31743139  0.86115475  0.03556131  1
  H  H1129  1  0.24216298  0.84172341  -0.08369696  1
  H  H1130  1  0.26210980  0.88081450  -0.03925059  1
  H  H1131  1  0.35248346  0.77330870  0.07671201  1
  H  H1132  1  0.31104044  0.88966245  0.01444357  1
  C  C1133  1  0.31857492  0.87530233  0.07417822  1
  O  O1134  1  0.32001442  0.84438343  0.10055756  1
  C  C1135  1  0.31499527  0.92907146  0.08177186  1
  N  N1136  1  0.30968499  0.96142749  0.05051003  1
  C  C1137  1  0.31688137  0.94671049  0.12020028  1
  C  C1138  1  0.30560228  1.01103198  0.05490428  1
  H  H1139  1  0.32151750  0.92118991  0.14583815  1
  C  C1140  1  0.31314018  0.99783324  0.12566038  1
  C  C1141  1  0.30240100  1.04417353  0.02018661  1
  C  C1142  1  0.30697090  1.03025979  0.09258970  1
  H  H1143  1  0.31532805  1.01237924  0.15526074  1
  N  N1144  1  0.31053117  1.02268331  -0.01185891  1
  O  O1145  1  0.29422755  1.08889794  0.02083611  1
  H  H1146  1  0.30407421  1.07012632  0.09657176  1
  H  H1147  1  0.31365220  0.98475940  -0.01026193  1
  C  C1148  1  0.31911729  1.04518870  -0.04365999  1
  C  C1149  1  0.31820374  1.01427488  -0.07645644  1
  C  C1150  1  0.33141425  1.09575424  -0.04314721  1
  C  C1151  1  0.32848497  1.03430621  -0.10791438  1
  N  N1152  1  0.30753554  0.96347967  -0.07835873  1
  C  C1153  1  0.34118870  1.11544930  -0.07500445  1
  H  H1154  1  0.33506053  1.12029247  -0.01738657  1
  H  H1155  1  0.32763996  1.01021829  -0.13291477  1
  C  C1156  1  0.33971296  1.08469399  -0.10754984  1
  H  H1157  1  0.31395488  0.94145214  -0.09882496  1
  H  H1158  1  0.30706194  0.94716847  -0.05238504  1
  H  H1159  1  0.35056744  1.15451391  -0.07407929  1
  H  H1160  1  0.34768760  1.09965428  -0.13219684  1
  H  H1161  1  0.74591086  0.74493976  0.57829812  1
  C  C1162  1  0.72478690  0.74040420  0.54431886  1
  C  C1163  1  0.70747587  0.78282253  0.51906869  1
  C  C1164  1  0.71572146  0.69263918  0.52628177  1
  H  H1165  1  0.71609224  0.81949020  0.53370222  1
  C  C1166  1  0.67958822  0.77775229  0.47536257  1
  C  C1167  1  0.68922311  0.68711846  0.48188144  1
  N  N1168  1  0.73430231  0.65145200  0.55292817  1
  H  H1169  1  0.66540228  0.81067613  0.45567718  1
  C  C1170  1  0.67018944  0.73009652  0.45706700  1
  N  N1171  1  0.68256860  0.63884656  0.46443787  1
  H  H1172  1  0.75783686  0.65827657  0.58369671  1
  H  H1173  1  0.73789014  0.61918512  0.53925021  1
  H  H1174  1  0.64751668  0.72669123  0.42328813  1
  H  H1175  1  0.68895987  0.61033681  0.48555704  1
  C  C1176  1  0.68142502  0.62469746  0.42582226  1
  O  O1177  1  0.67998551  0.65561690  0.39944213  1
  C  C1178  1  0.68500471  0.57092771  0.41822852  1
  N  N1179  1  0.69031506  0.53857391  0.44948992  1
  C  C1180  1  0.68311860  0.55329046  0.37979941  1
  C  C1181  1  0.69439791  0.48896643  0.44509536  1
  H  H1182  1  0.67848258  0.57880993  0.35416194  1
  C  C1183  1  0.68686000  0.50216602  0.37433955  1
  C  C1184  1  0.69759863  0.45582770  0.47981356  1
  C  C1185  1  0.69302903  0.46974117  0.40741062  1
  H  H1186  1  0.68467201  0.48762091  0.34473936  1
  N  N1187  1  0.68946904  0.47731622  0.51185888  1
  O  O1188  1  0.70577250  0.41110123  0.47916377  1
  H  H1189  1  0.69592594  0.42987321  0.40342820  1
  H  H1190  1  0.68634803  0.51524089  0.51026203  1
  C  C1191  1  0.68088245  0.45481159  0.54366008  1
  C  C1192  1  0.68179626  0.48572537  0.57645614  1
  C  C1193  1  0.66858574  0.40424551  0.54314683  1
  C  C1194  1  0.67151508  0.46569394  0.60791479  1
  N  N1195  1  0.69246432  0.53651981  0.57835898  1
  C  C1196  1  0.65881125  0.38455059  0.57500482  1
  H  H1197  1  0.66493937  0.37970764  0.51738667  1
  H  H1198  1  0.67236010  0.48978168  0.63291475  1
  C  C1199  1  0.66028696  0.41530577  0.60754961  1
  H  H1200  1  0.68604514  0.55854797  0.59882500  1
  H  H1201  1  0.69293773  0.55283195  0.55238477  1
  H  H1202  1  0.64943252  0.34548620  0.57407924  1
  H  H1203  1  0.65231252  0.40034574  0.63219693  1
  H  H1204  1  0.74591075  0.50506025  0.82829803  1
  C  C1205  1  0.72478702  0.50959517  0.79431869  1
  C  C1206  1  0.70747611  0.46717788  0.76906895  1
  C  C1207  1  0.71572182  0.55736193  0.77628240  1
  H  H1208  1  0.71609218  0.43050971  0.78370217  1
  C  C1209  1  0.67958812  0.47224705  0.72536229  1
  C  C1210  1  0.68922243  0.56288056  0.73188040  1
  N  N1211  1  0.73430157  0.59854693  0.80292724  1
  H  H1212  1  0.66540230  0.43932414  0.70567736  1
  C  C1213  1  0.67018974  0.51990442  0.70706744  1
  N  N1214  1  0.68256947  0.61115437  0.71444013  1
  H  H1215  1  0.75783716  0.59172357  0.83369707  1
  H  H1216  1  0.73789047  0.63081519  0.78925035  1
  H  H1217  1  0.64751668  0.52330872  0.67328796  1
  H  H1218  1  0.68895948  0.63966235  0.73555616  1
  C  C1219  1  0.68142453  0.62530178  0.67582005  1
  O  O1220  1  0.67998585  0.59438381  0.64944295  1
  C  C1221  1  0.68500475  0.67907202  0.66822873  1
  N  N1222  1  0.69031489  0.71142685  0.69949002  1
  C  C1223  1  0.68311857  0.69670958  0.62979940  1
  C  C1224  1  0.69439796  0.76103276  0.69509539  1
  H  H1225  1  0.67848239  0.67119002  0.60416170  1
  C  C1226  1  0.68685967  0.74783367  0.62433953  1
  C  C1227  1  0.69759847  0.79417342  0.72981350  1
  C  C1228  1  0.69302892  0.78025932  0.65741038  1
  H  H1229  1  0.68467220  0.76237931  0.59473927  1
  N  N1230  1  0.68946924  0.77268267  0.76185853  1
  O  O1231  1  0.70577270  0.83889801  0.72916395  1
  H  H1232  1  0.69592611  0.82012666  0.65342837  1
  H  H1233  1  0.68634801  0.73475965  0.76026213  1
  C  C1234  1  0.68088223  0.79518939  0.79366033  1
  C  C1235  1  0.68179652  0.76427379  0.82645613  1
  C  C1236  1  0.66858567  0.84575378  0.79314708  1
  C  C1237  1  0.67151491  0.78430664  0.85791463  1
  N  N1238  1  0.69246426  0.71348077  0.82835984  1
  C  C1239  1  0.65881140  0.86544955  0.82500469  1
  H  H1240  1  0.66493950  0.87029254  0.76738651  1
  H  H1241  1  0.67236016  0.76021827  0.88291485  1
  C  C1242  1  0.66028731  0.83469397  0.85754991  1
  H  H1243  1  0.68604517  0.69145217  0.84882495  1
  H  H1244  1  0.69293775  0.69716773  0.80238422  1
  H  H1245  1  0.64943251  0.90451380  0.82407926  1
  H  H1246  1  0.65231254  0.84965426  0.88219695  1
  H  H1247  1  0.25408915  0.49493974  0.17170197  1
  C  C1248  1  0.27521313  0.49040445  0.20568129  1
  C  C1249  1  0.29252395  0.53282242  0.23093104  1
  C  C1250  1  0.28427838  0.44263890  0.22371795  1
  H  H1251  1  0.28390768  0.56949019  0.21629783  1
  C  C1252  1  0.32041207  0.52775271  0.27463779  1
  C  C1253  1  0.31077706  0.43711880  0.26811894  1
  N  N1254  1  0.26569800  0.40145247  0.19707219  1
  H  H1255  1  0.33459764  0.56067597  0.29432271  1
  C  C1256  1  0.32981038  0.48009601  0.29293281  1
  N  N1257  1  0.31743139  0.38884632  0.28556185  1
  H  H1258  1  0.24216308  0.40827646  0.16630331  1
  H  H1259  1  0.26210981  0.36918499  0.21074977  1
  H  H1260  1  0.35248346  0.47669135  0.32671202  1
  H  H1261  1  0.31104021  0.36033701  0.26444318  1
  C  C1262  1  0.31857489  0.37469736  0.32417751  1
  O  O1263  1  0.32001452  0.40561706  0.35055810  1
  C  C1264  1  0.31499547  0.32092816  0.33177205  1
  N  N1265  1  0.30968502  0.28857345  0.30050992  1
  C  C1266  1  0.31688149  0.30329036  0.37020017  1
  C  C1267  1  0.30560207  0.23896660  0.30490466  1
  H  H1268  1  0.32151743  0.32880996  0.39583821  1
  C  C1269  1  0.31314007  0.25216616  0.37566076  1
  C  C1270  1  0.30240143  0.20582761  0.27018677  1
  C  C1271  1  0.30697090  0.21974106  0.34258931  1
  H  H1272  1  0.31532796  0.23762089  0.40526053  1
  N  N1273  1  0.31053106  0.22731606  0.23814077  1
  O  O1274  1  0.29422758  0.16110135  0.27083623  1
  H  H1275  1  0.30407417  0.17987324  0.34657184  1
  H  H1276  1  0.31365195  0.26524100  0.23973797  1
  C  C1277  1  0.31911746  0.20481199  0.20634011  1
  C  C1278  1  0.31820394  0.23572488  0.17354376  1
  C  C1279  1  0.33141446  0.15424540  0.20685308  1
  C  C1280  1  0.32848489  0.21569417  0.14208521  1
  N  N1281  1  0.30753562  0.28652031  0.17164104  1
  C  C1282  1  0.34118858  0.13455088  0.17499520  1
  H  H1283  1  0.33506054  0.12970765  0.23261333  1
  H  H1284  1  0.32763999  0.23978160  0.11708539  1
  C  C1285  1  0.33971298  0.16530556  0.14245038  1
  H  H1286  1  0.31395484  0.30854786  0.15117499  1
  H  H1287  1  0.30706224  0.30283185  0.19761514  1
  H  H1288  1  0.35056750  0.09548603  0.17592076  1
  H  H1289  1  0.34768753  0.15034576  0.11780312  1
  H  H1290  1  0.25408914  0.75506031  0.42170190  1
  C  C1291  1  0.27521324  0.75959546  0.45568139  1
  C  C1292  1  0.29252386  0.71717754  0.48093091  1
  C  C1293  1  0.28427828  0.80736164  0.47371780  1
  H  H1294  1  0.28390770  0.68050986  0.46629788  1
  C  C1295  1  0.32041207  0.72224733  0.52463783  1
  C  C1296  1  0.31077733  0.81288103  0.51811942  1
  N  N1297  1  0.26569799  0.84854655  0.44707174  1
  H  H1298  1  0.33459765  0.68932407  0.54432273  1
  C  C1299  1  0.32981033  0.76990390  0.54293253  1
  N  N1300  1  0.31743133  0.86115341  0.53556129  1
  H  H1301  1  0.24216330  0.84172367  0.41630351  1
  H  H1302  1  0.26210965  0.88081566  0.46075008  1
  H  H1303  1  0.35248352  0.77330861  0.57671209  1
  H  H1304  1  0.31104025  0.88966317  0.51444325  1
  C  C1305  1  0.31857505  0.87530331  0.57417807  1
  O  O1306  1  0.32001444  0.84438272  0.60055812  1
  C  C1307  1  0.31499537  0.92907128  0.58177150  1
  N  N1308  1  0.30968503  0.96142713  0.55050995  1
  C  C1309  1  0.31688170  0.94670969  0.62020069  1
  C  C1310  1  0.30560199  1.01103243  0.55490428  1
  H  H1311  1  0.32151740  0.92119000  0.64583813  1
  C  C1312  1  0.31314030  0.99783360  0.62566048  1
  C  C1313  1  0.30240153  1.04417415  0.52018696  1
  C  C1314  1  0.30697068  1.03025934  0.59258967  1
  H  H1315  1  0.31532798  1.01237924  0.65526078  1
  N  N1316  1  0.31053091  1.02268251  0.48814103  1
  O  O1317  1  0.29422751  1.08889776  0.52083618  1
  H  H1318  1  0.30407426  1.07012685  0.59657187  1
  H  H1319  1  0.31365198  0.98475984  0.48973796  1
  C  C1320  1  0.31911764  1.04518834  0.45633957  1
  C  C1321  1  0.31820405  1.01427559  0.42354415  1
  C  C1322  1  0.33141447  1.09575469  0.45685339  1
  C  C1323  1  0.32848480  1.03430532  0.39208493  1
  N  N1324  1  0.30753558  0.96347932  0.42164100  1
  C  C1325  1  0.34118851  1.11544903  0.42499505  1
  H  H1326  1  0.33506057  1.12029229  0.48261324  1
  H  H1327  1  0.32764002  1.01021865  0.36708558  1
  C  C1328  1  0.33971292  1.08469506  0.39245041  1
  H  H1329  1  0.31395487  0.94145223  0.40117510  1
  H  H1330  1  0.30706222  0.94716820  0.44761514  1
  H  H1331  1  0.35056743  1.15451400  0.42592071  1
  H  H1332  1  0.34768754  1.09965410  0.36780321  1
  H  H1333  1  0.74591116  0.74493971  1.07829836  1
  C  C1334  1  0.72478640  0.74040443  1.04431811  1
  C  C1335  1  0.70747597  0.78282226  1.01906912  1
  C  C1336  1  0.71572206  0.69263891  1.02628273  1
  H  H1337  1  0.71609248  0.81949020  1.03370220  1
  C  C1338  1  0.67958783  0.77775291  0.97536209  1
  C  C1339  1  0.68922287  0.68711873  0.98188104  1
  N  N1340  1  0.73430142  0.65145196  1.05292689  1
  H  H1341  1  0.66540245  0.81067586  0.95567731  1
  C  C1342  1  0.67018974  0.73009599  0.95706739  1
  N  N1343  1  0.68256812  0.63884670  0.96443621  1
  H  H1344  1  0.75783749  0.65827661  1.08369725  1
  H  H1345  1  0.73789005  0.61918525  1.03925053  1
  H  H1346  1  0.64751642  0.72669137  0.92328799  1
  H  H1347  1  0.68895997  0.61033636  0.98555755  1
  C  C1348  1  0.68142551  0.62469648  0.92582486  1
  O  O1349  1  0.67998549  0.65561788  0.89944116  1
  C  C1350  1  0.68500443  0.57092834  0.91822739  1
  N  N1351  1  0.69031493  0.53857342  0.94949020  1
  C  C1352  1  0.68311839  0.55329055  0.87980011  1
  C  C1353  1  0.69439822  0.48896648  0.94509541  1
  H  H1354  1  0.67848291  0.57881011  0.85416203  1
  C  C1355  1  0.68686002  0.50216589  0.87433933  1
  C  C1356  1  0.69759862  0.45582774  0.97981368  1
  C  C1357  1  0.69302927  0.46974148  0.90741086  1
  H  H1358  1  0.68467192  0.48762105  0.84473929  1
  N  N1359  1  0.68946891  0.47731590  1.01185863  1
  O  O1360  1  0.70577222  0.41110146  0.97916367  1
  H  H1361  1  0.69592548  0.42987308  0.90342802  1
  H  H1362  1  0.68634811  0.51524093  1.01026215  1
  C  C1363  1  0.68088247  0.45481199  1.04365997  1
  C  C1364  1  0.68179596  0.48572430  1.07645654  1
  C  C1365  1  0.66858556  0.40424546  1.04314726  1
  C  C1366  1  0.67151517  0.46569444  1.10791435  1
  N  N1367  1  0.69246448  0.53652084  1.07835881  1
  C  C1368  1  0.65881152  0.38455095  1.07500457  1
  H  H1369  1  0.66493941  0.37970755  1.01738653  1
  H  H1370  1  0.67236000  0.48978173  1.13291472  1
  C  C1371  1  0.66028699  0.41530541  1.10755001  1
  H  H1372  1  0.68604521  0.55854774  1.09882497  1
  H  H1373  1  0.69293790  0.55283164  1.05238508  1
  H  H1374  1  0.64943236  0.34548602  1.07407921  1
  H  H1375  1  0.65231237  0.40034588  1.13219667  1
  H  H1376  1  0.09408106  0.24864480  0.15138642  1
  C  C1377  1  0.08343191  0.27444156  0.16911387  1
  C  C1378  1  0.07902345  0.32516334  0.15886060  1
  C  C1379  1  0.07538708  0.25666278  0.20261846  1
  H  H1380  1  0.08623949  0.33877766  0.13337188  1
  C  C1381  1  0.06532291  0.35816294  0.18169301  1
  C  C1382  1  0.06196857  0.28991721  0.22623830  1
  N  N1383  1  0.08122053  0.20571305  0.21187920  1
  H  H1384  1  0.06176951  0.39769165  0.17435567  1
  C  C1385  1  0.05606388  0.34059531  0.21439391  1
  N  N1386  1  0.05588890  0.27008230  0.26043472  1
  H  H1387  1  0.08415387  0.18267299  0.19007147  1
  H  H1388  1  0.06742877  0.19118183  0.23046392  1
  H  H1389  1  0.04401961  0.36756158  0.22999147  1
  H  H1390  1  0.06201043  0.23268911  0.26510616  1
  C  C1391  1  0.04677873  0.29349683  0.29129981  1
  O  O1392  1  0.03903198  0.33846530  0.29097268  1
  C  C1393  1  0.04734303  0.26203644  0.32602112  1
  N  N1394  1  0.05555721  0.21269894  0.32541470  1
  C  C1395  1  0.03891531  0.28225930  0.35873408  1
  C  C1396  1  0.05535551  0.18159635  0.35551865  1
  H  H1397  1  0.03143111  0.32178001  0.35897263  1
  C  C1398  1  0.03963683  0.25126325  0.39086737  1
  C  C1399  1  0.06130088  0.12767412  0.35068901  1
  C  C1400  1  0.04777707  0.20033785  0.38923449  1
  H  H1401  1  0.03343608  0.26646363  0.41644069  1
  N  N1402  1  0.06410106  0.11232182  0.31408732  1
  O  O1403  1  0.06339278  0.09808052  0.37814712  1
  H  H1404  1  0.04749995  0.17570334  0.41367540  1
  H  H1405  1  0.06586000  0.14063550  0.29549723  1
  C  C1406  1  0.06782631  0.06399054  0.30043555  1
  C  C1407  1  0.08688766  0.05896407  0.27157784  1
  C  C1408  1  0.05215869  0.02075590  0.31283301  1
  C  C1409  1  0.09077564  0.01170744  0.25668159  1
  N  N1410  1  0.10283149  0.10015207  0.25767310  1
  C  C1411  1  0.05658251  -0.02639683  0.29801046  1
  H  H1412  1  0.03591181  0.02305386  0.33379407  1
  H  H1413  1  0.10527363  0.00784395  0.23445490  1
  C  C1414  1  0.07624624  -0.03081834  0.27010730  1
  H  H1415  1  0.12271419  0.09350398  0.24239888  1
  H  H1416  1  0.10828226  0.13265676  0.27436685  1
  H  H1417  1  0.04457444  -0.05944787  0.30802217  1
  H  H1418  1  0.08047717  -0.06710425  0.25875519  1
  H  H1419  1  -0.09408094  -0.24864482  -0.15138637  1
  C  C1420  1  -0.08343189  -0.27444151  -0.16911385  1
  C  C1421  1  -0.07902358  -0.32516327  -0.15886065  1
  C  C1422  1  -0.07538704  -0.25666286  -0.20261853  1
  H  H1423  1  -0.08623946  -0.33877771  -0.13337186  1
  C  C1424  1  -0.06532286  -0.35816296  -0.18169305  1
  C  C1425  1  -0.06196861  -0.28991737  -0.22623820  1
  N  N1426  1  -0.08122063  -0.20571292  -0.21187905  1
  H  H1427  1  -0.06176952  -0.39769160  -0.17435569  1
  C  C1428  1  -0.05606395  -0.34059516  -0.21439389  1
  N  N1429  1  -0.05588907  -0.27008206  -0.26043493  1
  H  H1430  1  -0.08415387  -0.18267313  -0.19007159  1
  H  H1431  1  -0.06742871  -0.19118183  -0.23046396  1
  H  H1432  1  -0.04401962  -0.36756165  -0.22999154  1
  H  H1433  1  -0.06201065  -0.23268926  -0.26510622  1
  C  C1434  1  -0.04677855  -0.29349712  -0.29129975  1
  O  O1435  1  -0.03903172  -0.33846505  -0.29097255  1
  C  C1436  1  -0.04734309  -0.26203624  -0.32602116  1
  N  N1437  1  -0.05555725  -0.21269901  -0.32541481  1
  C  C1438  1  -0.03891533  -0.28225947  -0.35873415  1
  C  C1439  1  -0.05535554  -0.18159636  -0.35551842  1
  H  H1440  1  -0.03143099  -0.32177983  -0.35897255  1
  C  C1441  1  -0.03963690  -0.25126308  -0.39086726  1
  C  C1442  1  -0.06130089  -0.12767388  -0.35068954  1
  C  C1443  1  -0.04777702  -0.20033773  -0.38923460  1
  H  H1444  1  -0.03343606  -0.26646365  -0.41644072  1
  N  N1445  1  -0.06410106  -0.11232178  -0.31408692  1
  O  O1446  1  -0.06339259  -0.09808072  -0.37814678  1
  H  H1447  1  -0.04750002  -0.17570341  -0.41367537  1
  H  H1448  1  -0.06586004  -0.14063535  -0.29549730  1
  C  C1449  1  -0.06782636  -0.06399065  -0.30043560  1
  C  C1450  1  -0.08688756  -0.05896390  -0.27157795  1
  C  C1451  1  -0.05215864  -0.02075580  -0.31283297  1
  C  C1452  1  -0.09077565  -0.01170747  -0.25668147  1
  N  N1453  1  -0.10283159  -0.10015213  -0.25767302  1
  C  C1454  1  -0.05658245  0.02639679  -0.29801044  1
  H  H1455  1  -0.03591179  -0.02305383  -0.33379407  1
  H  H1456  1  -0.10527365  -0.00784388  -0.23445496  1
  C  C1457  1  -0.07624622  0.03081847  -0.27010741  1
  H  H1458  1  -0.12271418  -0.09350389  -0.24239890  1
  H  H1459  1  -0.10828229  -0.13265668  -0.27436690  1
  H  H1460  1  -0.04457445  0.05944791  -0.30802217  1
  H  H1461  1  -0.08047717  0.06710426  -0.25875519  1
  H  H1462  1  -0.09408094  0.49864480  0.09861366  1
  C  C1463  1  -0.08343187  0.52444140  0.08088603  1
  C  C1464  1  -0.07902362  0.57516340  0.09113935  1
  C  C1465  1  -0.07538701  0.50666284  0.04738178  1
  H  H1466  1  -0.08623930  0.58877764  0.11662818  1
  C  C1467  1  -0.06532294  0.60816271  0.06830695  1
  C  C1468  1  -0.06196853  0.53991734  0.02376163  1
  N  N1469  1  -0.08122053  0.45571296  0.03812059  1
  H  H1470  1  -0.06176952  0.64769167  0.07564432  1
  C  C1471  1  -0.05606386  0.59059526  0.03560618  1
  N  N1472  1  -0.05588937  0.52008205  -0.01043488  1
  H  H1473  1  -0.08415384  0.43267293  0.05992851  1
  H  H1474  1  -0.06742888  0.44118184  0.01953623  1
  H  H1475  1  -0.04401971  0.61756153  0.02000845  1
  H  H1476  1  -0.06201076  0.48268926  -0.01510632  1
  C  C1477  1  -0.04677814  0.54349723  -0.04129967  1
  O  O1478  1  -0.03903160  0.58846485  -0.04097238  1
  C  C1479  1  -0.04734287  0.51203628  -0.07602113  1
  N  N1480  1  -0.05555734  0.46269898  -0.07541477  1
  C  C1481  1  -0.03891567  0.53225925  -0.10873435  1
  C  C1482  1  -0.05535550  0.43159633  -0.10551855  1
  H  H1483  1  -0.03143080  0.57178009  -0.10897248  1
  C  C1484  1  -0.03963690  0.50126341  -0.14086727  1
  C  C1485  1  -0.06130097  0.37767427  -0.10068919  1
  C  C1486  1  -0.04777667  0.45033746  -0.13923441  1
  H  H1487  1  -0.03343607  0.51646360  -0.16644072  1
  N  N1488  1  -0.06410102  0.36232122  -0.06408716  1
  O  O1489  1  -0.06339272  0.34808054  -0.12814703  1
  H  H1490  1  -0.04750028  0.42570349  -0.16367549  1
  H  H1491  1  -0.06586007  0.39063560  -0.04549726  1
  C  C1492  1  -0.06782629  0.31399104  -0.05043570  1
  C  C1493  1  -0.08688765  0.30896368  -0.02157783  1
  C  C1494  1  -0.05215869  0.27075569  -0.06283293  1
  C  C1495  1  -0.09077555  0.26170761  -0.00668158  1
  N  N1496  1  -0.10283149  0.35015223  -0.00767308  1
  C  C1497  1  -0.05658239  0.22360334  -0.04801048  1
  H  H1498  1  -0.03591173  0.27305389  -0.08379407  1
  H  H1499  1  -0.10527364  0.25784388  0.01554509  1
  C  C1500  1  -0.07624616  0.21918148  -0.02010725  1
  H  H1501  1  -0.12271422  0.34350391  0.00760108  1
  H  H1502  1  -0.10828221  0.38265665  -0.02436680  1
  H  H1503  1  -0.04457442  0.19055206  -0.05802219  1
  H  H1504  1  -0.08047713  0.18289575  -0.00875522  1
  H  H1505  1  0.09408105  0.00135518  0.40138643  1
  C  C1506  1  0.08343192  -0.02444148  0.41911389  1
  C  C1507  1  0.07902359  -0.07516326  0.40886061  1
  C  C1508  1  0.07538697  -0.00666271  0.45261837  1
  H  H1509  1  0.08623932  -0.08877764  0.38337178  1
  C  C1510  1  0.06532292  -0.10816292  0.43169306  1
  C  C1511  1  0.06196847  -0.03991722  0.47623846  1
  N  N1512  1  0.08122081  0.04428699  0.46187902  1
  H  H1513  1  0.06176948  -0.14769162  0.42435564  1
  C  C1514  1  0.05606388  -0.09059535  0.46439375  1
  N  N1515  1  0.05588946  -0.02008213  0.51043452  1
  H  H1516  1  0.08415390  0.06732690  0.44007167  1
  H  H1517  1  0.06742876  0.05881826  0.48046406  1
  H  H1518  1  0.04401972  -0.11756161  0.47999151  1
  H  H1519  1  0.06201073  0.01731082  0.51510636  1
  C  C1520  1  0.04677815  -0.04349732  0.54129976  1
  O  O1521  1  0.03903167  -0.08846494  0.54097248  1
  C  C1522  1  0.04734310  -0.01203620  0.57602096  1
  N  N1523  1  0.05555740  0.03730086  0.57541468  1
  C  C1524  1  0.03891555  -0.03225941  0.60873437  1
  C  C1525  1  0.05535560  0.06840378  0.60551875  1
  H  H1526  1  0.03143088  -0.07177993  0.60897250  1
  C  C1527  1  0.03963681  -0.00126308  0.64086713  1
  C  C1528  1  0.06130097  0.12232577  0.60068865  1
  C  C1529  1  0.04777687  0.04966216  0.63923444  1
  H  H1530  1  0.03343606  -0.01646361  0.66644067  1
  N  N1531  1  0.06410097  0.13767834  0.56408771  1
  O  O1532  1  0.06339283  0.15191964  0.62814726  1
  H  H1533  1  0.04750019  0.07429670  0.66367554  1
  H  H1534  1  0.06586003  0.10936444  0.54549704  1
  C  C1535  1  0.06782646  0.18600934  0.55043542  1
  C  C1536  1  0.08688744  0.19103604  0.52157792  1
  C  C1537  1  0.05215864  0.22924417  0.56283309  1
  C  C1538  1  0.09077570  0.23829256  0.50668154  1
  N  N1539  1  0.10283146  0.14984786  0.50767311  1
  C  C1540  1  0.05658245  0.27639683  0.54801037  1
  H  H1541  1  0.03591178  0.22694613  0.58379406  1
  H  H1542  1  0.10527366  0.24215613  0.48445495  1
  C  C1543  1  0.07624616  0.28081840  0.52010742  1
  H  H1544  1  0.12271422  0.15649615  0.49239879  1
  H  H1545  1  0.10828222  0.11734339  0.52436674  1
  H  H1546  1  0.04457437  0.30944796  0.55802217  1
  H  H1547  1  0.08047720  0.31710433  0.50875523  1
  H  H1548  1  0.09408122  0.24864473  0.65138646  1
  C  C1549  1  0.08343168  0.27444153  0.66911422  1
  C  C1550  1  0.07902363  0.32516321  0.65886014  1
  C  C1551  1  0.07538744  0.25666304  0.70261798  1
  H  H1552  1  0.08623949  0.33877760  0.63337211  1
  C  C1553  1  0.06532266  0.35816296  0.68169338  1
  C  C1554  1  0.06196838  0.28991708  0.72623882  1
  N  N1555  1  0.08122044  0.20571294  0.71187934  1
  H  H1556  1  0.06176950  0.39769169  0.67435562  1
  C  C1557  1  0.05606425  0.34059536  0.71439351  1
  N  N1558  1  0.05588870  0.27008286  0.76043427  1
  H  H1559  1  0.08415389  0.18267302  0.69007147  1
  H  H1560  1  0.06742879  0.19118180  0.73046382  1
  H  H1561  1  0.04401957  0.36756167  0.72999165  1
  H  H1562  1  0.06201053  0.23268875  0.76510623  1
  C  C1563  1  0.04677912  0.29349661  0.79130001  1
  O  O1564  1  0.03903199  0.33846545  0.79097265  1
  C  C1565  1  0.04734305  0.26203669  0.82602147  1
  N  N1566  1  0.05555744  0.21269885  0.82541459  1
  C  C1567  1  0.03891499  0.28225898  0.85873375  1
  C  C1568  1  0.05535530  0.18159660  0.85551832  1
  H  H1569  1  0.03143120  0.32178019  0.85897264  1
  C  C1570  1  0.03963700  0.25126308  0.89086746  1
  C  C1571  1  0.06130102  0.12767333  0.85069039  1
  C  C1572  1  0.04777750  0.20033765  0.88923454  1
  H  H1573  1  0.03343599  0.26646370  0.91644062  1
  N  N1574  1  0.06410111  0.11232167  0.81408633  1
  O  O1575  1  0.06339276  0.09808129  0.87814645  1
  H  H1576  1  0.04749980  0.17570331  0.91367542  1
  H  H1577  1  0.06585995  0.14063526  0.79549745  1
  C  C1578  1  0.06782644  0.06399093  0.80043579  1
  C  C1579  1  0.08688748  0.05896384  0.77157810  1
  C  C1580  1  0.05215866  0.02075571  0.81283293  1
  C  C1581  1  0.09077563  0.01170747  0.75668145  1
  N  N1582  1  0.10283184  0.10015191  0.75767256  1
  C  C1583  1  0.05658225  -0.02639663  0.79801047  1
  H  H1584  1  0.03591171  0.02305388  0.83379412  1
  H  H1585  1  0.10527359  0.00784386  0.73445501  1
  C  C1586  1  0.07624631  -0.03081857  0.77010752  1
  H  H1587  1  0.12271400  0.09350388  0.74239912  1
  H  H1588  1  0.10828214  0.13265691  0.77436692  1
  H  H1589  1  0.04457437  -0.05944798  0.80802216  1
  H  H1590  1  0.08047707  -0.06710428  0.75875518  1
  H  H1591  1  -0.09408108  -0.24864478  0.34861357  1
  C  C1592  1  -0.08343195  -0.27444151  0.33088603  1
  C  C1593  1  -0.07902348  -0.32516343  0.34113942  1
  C  C1594  1  -0.07538710  -0.25666269  0.29738175  1
  H  H1595  1  -0.08623941  -0.33877762  0.36662818  1
  C  C1596  1  -0.06532289  -0.35816282  0.31830694  1
  C  C1597  1  -0.06196850  -0.28991732  0.27376156  1
  N  N1598  1  -0.08122051  -0.20571314  0.28812049  1
  H  H1599  1  -0.06176947  -0.39769165  0.32564444  1
  C  C1600  1  -0.05606391  -0.34059524  0.28560612  1
  N  N1601  1  -0.05588919  -0.27008197  0.23956539  1
  H  H1602  1  -0.08415385  -0.18267290  0.30992860  1
  H  H1603  1  -0.06742887  -0.19118185  0.26953611  1
  H  H1604  1  -0.04401967  -0.36756156  0.27000853  1
  H  H1605  1  -0.06201060  -0.23268926  0.23489376  1
  C  C1606  1  -0.04677834  -0.29349761  0.20870014  1
  O  O1607  1  -0.03903193  -0.33846483  0.20902741  1
  C  C1608  1  -0.04734313  -0.26203589  0.17397895  1
  N  N1609  1  -0.05555713  -0.21269934  0.17458541  1
  C  C1610  1  -0.03891525  -0.28225965  0.14126578  1
  C  C1611  1  -0.05535549  -0.18159610  0.14448138  1
  H  H1612  1  -0.03143107  -0.32177987  0.14102743  1
  C  C1613  1  -0.03963684  -0.25126296  0.10913275  1
  C  C1614  1  -0.06130083  -0.12767419  0.14931072  1
  C  C1615  1  -0.04777698  -0.20033796  0.11076552  1
  H  H1616  1  -0.03343605  -0.26646370  0.08355930  1
  N  N1617  1  -0.06410103  -0.11232168  0.18591290  1
  O  O1618  1  -0.06339277  -0.09808061  0.12185297  1
  H  H1619  1  -0.04750000  -0.17570337  0.08632458  1
  H  H1620  1  -0.06585995  -0.14063545  0.20450277  1
  C  C1621  1  -0.06782628  -0.06399059  0.19956445  1
  C  C1622  1  -0.08688759  -0.05896415  0.22842202  1
  C  C1623  1  -0.05215859  -0.02075589  0.18716700  1
  C  C1624  1  -0.09077562  -0.01170732  0.24331850  1
  N  N1625  1  -0.10283152  -0.10015165  0.24232718  1
  C  C1626  1  -0.05658246  0.02639686  0.20198950  1
  H  H1627  1  -0.03591175  -0.02305386  0.16620589  1
  H  H1628  1  -0.10527361  -0.00784387  0.26554498  1
  C  C1629  1  -0.07624622  0.03081840  0.22989252  1
  H  H1630  1  -0.12271407  -0.09350398  0.25760098  1
  H  H1631  1  -0.10828213  -0.13265696  0.22563313  1
  H  H1632  1  -0.04457441  0.05944792  0.19197777  1
  H  H1633  1  -0.08047715  0.06710433  0.24124473  1
  H  H1634  1  -0.09408097  0.49864484  0.59861363  1
  C  C1635  1  -0.08343188  0.52444122  0.58088605  1
  C  C1636  1  -0.07902385  0.57516354  0.59113934  1
  C  C1637  1  -0.07538677  0.50666324  0.54738185  1
  H  H1638  1  -0.08623928  0.58877759  0.61662817  1
  C  C1639  1  -0.06532281  0.60816284  0.56830689  1
  C  C1640  1  -0.06196880  0.53991712  0.52376157  1
  N  N1641  1  -0.08122074  0.45571256  0.53812082  1
  H  H1642  1  -0.06176942  0.64769162  0.57564439  1
  C  C1643  1  -0.05606375  0.59059535  0.53560632  1
  N  N1644  1  -0.05588946  0.52008236  0.48956498  1
  H  H1645  1  -0.08415381  0.43267320  0.55992832  1
  H  H1646  1  -0.06742886  0.44118184  0.51953615  1
  H  H1647  1  -0.04401969  0.61756158  0.52000848  1
  H  H1648  1  -0.06201089  0.48268917  0.48489367  1
  C  C1649  1  -0.04677813  0.54349705  0.45870045  1
  O  O1650  1  -0.03903146  0.58846485  0.45902766  1
  C  C1651  1  -0.04734286  0.51203602  0.42397907  1
  N  N1652  1  -0.05555760  0.46269916  0.42458508  1
  C  C1653  1  -0.03891582  0.53225952  0.39126543  1
  C  C1654  1  -0.05535565  0.43159629  0.39448124  1
  H  H1655  1  -0.03143073  0.57177983  0.39102760  1
  C  C1656  1  -0.03963720  0.50126309  0.35913274  1
  C  C1657  1  -0.06130110  0.37767440  0.39931126  1
  C  C1658  1  -0.04777647  0.45033764  0.36076578  1
  H  H1659  1  -0.03343600  0.51646360  0.33355928  1
  N  N1660  1  -0.06410100  0.36232122  0.43591243  1
  O  O1661  1  -0.06339288  0.34808036  0.37185276  1
  H  H1662  1  -0.04750041  0.42570345  0.33632444  1
  H  H1663  1  -0.06586009  0.39063564  0.45450287  1
  C  C1664  1  -0.06782641  0.31399089  0.44956449  1
  C  C1665  1  -0.08688773  0.30896397  0.47842218  1
  C  C1666  1  -0.05215873  0.27075569  0.43716693  1
  C  C1667  1  -0.09077568  0.26170745  0.49331841  1
  N  N1668  1  -0.10283138  0.35015187  0.49232696  1
  C  C1669  1  -0.05658245  0.22360318  0.45198954  1
  H  H1670  1  -0.03591181  0.27305391  0.41620585  1
  H  H1671  1  -0.10527357  0.25784390  0.51554508  1
  C  C1672  1  -0.07624623  0.21918172  0.47989276  1
  H  H1673  1  -0.12271427  0.34350393  0.50760116  1
  H  H1674  1  -0.10828232  0.38265674  0.47563317  1
  H  H1675  1  -0.04457449  0.19055215  0.44197777  1
  H  H1676  1  -0.08047715  0.18289574  0.49124476  1
  H  H1677  1  0.09408103  0.00135516  0.90138648  1
  C  C1678  1  0.08343199  -0.02444163  0.91911357  1
  C  C1679  1  0.07902332  -0.07516323  0.90886093  1
  C  C1680  1  0.07538711  -0.00666261  0.95261884  1
  H  H1681  1  0.08623954  -0.08877773  0.88337175  1
  C  C1682  1  0.06532297  -0.10816294  0.93169288  1
  C  C1683  1  0.06196860  -0.03991712  0.97623832  1
  N  N1684  1  0.08122047  0.04428679  0.96187914  1
  H  H1685  1  0.06176956  -0.14769173  0.92435572  1
  C  C1686  1  0.05606390  -0.09059518  0.96439414  1
  N  N1687  1  0.05588898  -0.02008224  1.01043422  1
  H  H1688  1  0.08415376  0.06732712  0.94007149  1
  H  H1689  1  0.06742887  0.05881823  0.98046392  1
  H  H1690  1  0.04401966  -0.11756159  0.97999145  1
  H  H1691  1  0.06201055  0.01731096  1.01510618  1
  C  C1692  1  0.04677873  -0.04349717  1.04130027  1
  O  O1693  1  0.03903190  -0.08846517  1.04097260  1
  C  C1694  1  0.04734314  -0.01203626  1.07602112  1
  N  N1695  1  0.05555731  0.03730108  1.07541492  1
  C  C1696  1  0.03891527  -0.03225944  1.10873423  1
  C  C1697  1  0.05535551  0.06840371  1.10551842  1
  H  H1698  1  0.03143111  -0.07177982  1.10897259  1
  C  C1699  1  0.03963683  -0.00126285  1.14086711  1
  C  C1700  1  0.06130097  0.12232578  1.10069011  1
  C  C1701  1  0.04777726  0.04966213  1.13923487  1
  H  H1702  1  0.03343612  -0.01646364  1.16644072  1
  N  N1703  1  0.06410113  0.13767931  1.06408658  1
  O  O1704  1  0.06339274  0.15191926  1.12814678  1
  H  H1705  1  0.04750001  0.07429657  1.16367529  1
  H  H1706  1  0.06585997  0.10936438  1.04549717  1
  C  C1707  1  0.06782650  0.18600836  1.05043581  1
  C  C1708  1  0.08688744  0.19103682  1.02157789  1
  C  C1709  1  0.05215864  0.22924464  1.06283280  1
  C  C1710  1  0.09077581  0.23829236  1.00668155  1
  N  N1711  1  0.10283164  0.14984748  1.00767304  1
  C  C1712  1  0.05658249  0.27639654  1.04801057  1
  H  H1713  1  0.03591173  0.22694617  1.08379415  1
  H  H1714  1  0.10527359  0.24215609  0.98445504  1
  C  C1715  1  0.07624612  0.28081863  1.02010739  1
  H  H1716  1  0.12271402  0.15649616  0.99239892  1
  H  H1717  1  0.10828234  0.11734339  1.02436679  1
  H  H1718  1  0.04457439  0.30944800  1.05802219  1
  H  H1719  1  0.08047718  0.31710422  1.00875521  1
  H  H1720  1  0.09408115  0.74864477  0.15138646  1
  C  C1721  1  0.08343196  0.77444146  0.16911412  1
  C  C1722  1  0.07902362  0.82516347  0.15886043  1
  C  C1723  1  0.07538744  0.75666246  0.20261829  1
  H  H1724  1  0.08623961  0.83877765  0.13337202  1
  C  C1725  1  0.06532294  0.85816282  0.18169311  1
  C  C1726  1  0.06196852  0.78991714  0.22623845  1
  N  N1727  1  0.08122038  0.70571378  0.21187967  1
  H  H1728  1  0.06176946  0.89769173  0.17435559  1
  C  C1729  1  0.05606392  0.84059537  0.21439393  1
  N  N1730  1  0.05588893  0.77008265  0.26043466  1
  H  H1731  1  0.08415390  0.68267277  0.19007128  1
  H  H1732  1  0.06742886  0.69118177  0.23046377  1
  H  H1733  1  0.04401958  0.86756164  0.22999143  1
  H  H1734  1  0.06201056  0.73268901  0.26510622  1
  C  C1735  1  0.04677872  0.79349694  0.29129970  1
  O  O1736  1  0.03903183  0.83846518  0.29097258  1
  C  C1737  1  0.04734302  0.76203617  0.32602123  1
  N  N1738  1  0.05555727  0.71269927  0.32541473  1
  C  C1739  1  0.03891510  0.78225935  0.35873404  1
  C  C1740  1  0.05535543  0.68159622  0.35551842  1
  H  H1741  1  0.03143102  0.82177998  0.35897259  1
  C  C1742  1  0.03963699  0.75126316  0.39086730  1
  C  C1743  1  0.06130089  0.62767415  0.35068981  1
  C  C1744  1  0.04777711  0.70033784  0.38923460  1
  H  H1745  1  0.03343601  0.76646362  0.41644069  1
  N  N1746  1  0.06410120  0.61232079  0.31408667  1
  O  O1747  1  0.06339289  0.59808080  0.37814690  1
  H  H1748  1  0.04750000  0.67570338  0.41367537  1
  H  H1749  1  0.06585996  0.64063566  0.29549719  1
  C  C1750  1  0.06782625  0.56399144  0.30043594  1
  C  C1751  1  0.08688783  0.55896368  0.27157759  1
  C  C1752  1  0.05215867  0.52075546  0.31283295  1
  C  C1753  1  0.09077555  0.51170771  0.25668162  1
  N  N1754  1  0.10283124  0.60015211  0.25767333  1
  C  C1755  1  0.05658249  0.47360349  0.29801057  1
  H  H1756  1  0.03591179  0.52305393  0.33379415  1
  H  H1757  1  0.10527363  0.50784383  0.23445496  1
  C  C1758  1  0.07624620  0.46918129  0.27010734  1
  H  H1759  1  0.12271431  0.59350375  0.24239879  1
  H  H1760  1  0.10828230  0.63265667  0.27436679  1
  H  H1761  1  0.04457439  0.44055208  0.30802219  1
  H  H1762  1  0.08047717  0.43289581  0.25875526  1
  H  H1763  1  -0.09408105  0.25135515  -0.15138647  1
  C  C1764  1  -0.08343194  0.22555853  -0.16911387  1
  C  C1765  1  -0.07902348  0.17483661  -0.15886058  1
  C  C1766  1  -0.07538701  0.24333708  -0.20261848  1
  H  H1767  1  -0.08623944  0.16122237  -0.13337191  1
  C  C1768  1  -0.06532284  0.14183699  -0.18169303  1
  C  C1769  1  -0.06196858  0.21008267  -0.22623815  1
  N  N1770  1  -0.08122061  0.29428719  -0.21187914  1
  H  H1771  1  -0.06176948  0.10230843  -0.17435565  1
  C  C1772  1  -0.05606389  0.15940485  -0.21439395  1
  N  N1773  1  -0.05588900  0.22991776  -0.26043483  1
  H  H1774  1  -0.08415385  0.31732688  -0.19007159  1
  H  H1775  1  -0.06742875  0.30881819  -0.23046394  1
  H  H1776  1  -0.04401960  0.13243838  -0.22999147  1
  H  H1777  1  -0.06201056  0.26731086  -0.26510622  1
  C  C1778  1  -0.04677861  0.20650298  -0.29129974  1
  O  O1779  1  -0.03903183  0.16153493  -0.29097262  1
  C  C1780  1  -0.04734304  0.23796368  -0.32602116  1
  N  N1781  1  -0.05555723  0.28730096  -0.32541470  1
  C  C1782  1  -0.03891544  0.21774070  -0.35873415  1
  C  C1783  1  -0.05535560  0.31840363  -0.35551865  1
  H  H1784  1  -0.03143098  0.17822004  -0.35897259  1
  C  C1785  1  -0.03963686  0.24873683  -0.39086726  1
  C  C1786  1  -0.06130088  0.37232583  -0.35068905  1
  C  C1787  1  -0.04777694  0.29966226  -0.38923449  1
  H  H1788  1  -0.03343604  0.23353636  -0.41644069  1
  N  N1789  1  -0.06410098  0.38767857  -0.31408741  1
  O  O1790  1  -0.06339275  0.40191954  -0.37814705  1
  H  H1791  1  -0.04749997  0.32429667  -0.41367540  1
  H  H1792  1  -0.06586001  0.35936448  -0.29549711  1
  C  C1793  1  -0.06782633  0.43600904  -0.30043553  1
  C  C1794  1  -0.08688760  0.44103621  -0.27157789  1
  C  C1795  1  -0.05215864  0.47924439  -0.31283295  1
  C  C1796  1  -0.09077563  0.48829236  -0.25668151  1
  N  N1797  1  -0.10283149  0.39984765  -0.25767316  1
  C  C1798  1  -0.05658249  0.52639676  -0.29801051  1
  H  H1799  1  -0.03591181  0.47694615  -0.33379411  1
  H  H1800  1  -0.10527364  0.49215611  -0.23445494  1
  C  C1801  1  -0.07624627  0.53081851  -0.27010734  1
  H  H1802  1  -0.12271417  0.40649605  -0.24239882  1
  H  H1803  1  -0.10828230  0.36734345  -0.27436683  1
  H  H1804  1  -0.04457448  0.55944791  -0.30802219  1
  H  H1805  1  -0.08047718  0.56710422  -0.25875522  1
  H  H1806  1  -0.09408104  0.99864479  0.09861361  1
  C  C1807  1  -0.08343186  1.02444130  0.08088589  1
  C  C1808  1  -0.07902365  1.07516348  0.09113936  1
  C  C1809  1  -0.07538715  1.00666283  0.04738189  1
  H  H1810  1  -0.08623944  1.08877767  0.11662812  1
  C  C1811  1  -0.06532288  1.10816274  0.06830689  1
  C  C1812  1  -0.06196848  1.03991715  0.02376159  1
  N  N1813  1  -0.08122022  0.95571331  0.03811995  1
  H  H1814  1  -0.06176947  1.14769166  0.07564438  1
  C  C1815  1  -0.05606387  1.09059539  0.03560617  1
  N  N1816  1  -0.05588905  1.02008249  -0.01043511  1
  H  H1817  1  -0.08415386  0.93267266  0.05992893  1
  H  H1818  1  -0.06742893  0.94118192  0.01953644  1
  H  H1819  1  -0.04401958  1.11756148  0.02000860  1
  H  H1820  1  -0.06201044  0.98268912  -0.01510611  1
  C  C1821  1  -0.04677853  1.04349669  -0.04129939  1
  O  O1822  1  -0.03903185  1.08846537  -0.04097260  1
  C  C1823  1  -0.04734315  1.01203529  -0.07602116  1
  N  N1824  1  -0.05555711  0.96269960  -0.07541449  1
  C  C1825  1  -0.03891552  1.03226009  -0.10873433  1
  C  C1826  1  -0.05535574  0.93159615  -0.10551885  1
  H  H1827  1  -0.03143095  1.07177973  -0.10897256  1
  C  C1828  1  -0.03963689  1.00126264  -0.14086727  1
  C  C1829  1  -0.06130084  0.87767377  -0.10068917  1
  C  C1830  1  -0.04777663  0.95033799  -0.13923423  1
  H  H1831  1  -0.03343608  1.01646373  -0.16644081  1
  N  N1832  1  -0.06410105  0.86232175  -0.06408727  1
  O  O1833  1  -0.06339274  0.84808064  -0.12814698  1
  H  H1834  1  -0.04750016  0.92570322  -0.16367559  1
  H  H1835  1  -0.06586008  0.89063546  -0.04549719  1
  C  C1836  1  -0.06782635  0.81399088  -0.05043533  1
  C  C1837  1  -0.08688730  0.80896325  -0.02157815  1
  C  C1838  1  -0.05215863  0.77075566  -0.06283311  1
  C  C1839  1  -0.09077578  0.76170800  -0.00668146  1
  N  N1840  1  -0.10283189  0.85015262  -0.00767285  1
  C  C1841  1  -0.05658254  0.72360320  -0.04801042  1
  H  H1842  1  -0.03591178  0.77305381  -0.08379410  1
  H  H1843  1  -0.10527353  0.75784381  0.01554506  1
  C  C1844  1  -0.07624610  0.71918127  -0.02010718  1
  H  H1845  1  -0.12271403  0.84350395  0.00760098  1
  H  H1846  1  -0.10828197  0.88265646  -0.02436664  1
  H  H1847  1  -0.04457439  0.69055200  -0.05802225  1
  H  H1848  1  -0.08047716  0.68289578  -0.00875531  1
  H  H1849  1  0.09408105  0.50135523  0.40138647  1
  C  C1850  1  0.08343196  0.47555850  0.41911393  1
  C  C1851  1  0.07902315  0.42483654  0.40886050  1
  C  C1852  1  0.07538712  0.49333701  0.45261852  1
  H  H1853  1  0.08623965  0.41122235  0.38337201  1
  C  C1854  1  0.06532291  0.39183732  0.43169302  1
  C  C1855  1  0.06196853  0.46008278  0.47623792  1
  N  N1856  1  0.08122043  0.54428720  0.46187921  1
  H  H1857  1  0.06176955  0.35230829  0.42435567  1
  C  C1858  1  0.05606401  0.40940459  0.46439416  1
  N  N1859  1  0.05588844  0.47991784  0.51043505  1
  H  H1860  1  0.08415386  0.56732696  0.44007148  1
  H  H1861  1  0.06742874  0.55881814  0.48046391  1
  H  H1862  1  0.04401953  0.38243849  0.47999136  1
  H  H1863  1  0.06201023  0.51731081  0.51510598  1
  C  C1864  1  0.04677911  0.45650289  0.54129961  1
  O  O1865  1  0.03903232  0.41153491  0.54097289  1
  C  C1866  1  0.04734321  0.48796392  0.57602149  1
  N  N1867  1  0.05555697  0.53730056  0.57541430  1
  C  C1868  1  0.03891499  0.46774051  0.60873383  1
  C  C1869  1  0.05535558  0.56840383  0.60551890  1
  H  H1870  1  0.03143129  0.42822020  0.60897269  1
  C  C1871  1  0.03963672  0.49873707  0.64086744  1
  C  C1872  1  0.06130070  0.62232598  0.60068919  1
  C  C1873  1  0.04777742  0.54966190  0.63923436  1
  H  H1874  1  0.03343612  0.48353633  0.66644067  1
  N  N1875  1  0.06410115  0.63767832  0.56408706  1
  O  O1876  1  0.06339274  0.65191942  0.62814704  1
  H  H1877  1  0.04749967  0.57429680  0.66367539  1
  H  H1878  1  0.06585995  0.60936452  0.54549719  1
  C  C1879  1  0.06782611  0.68600937  0.55043553  1
  C  C1880  1  0.08688770  0.69103619  0.52157773  1
  C  C1881  1  0.05215866  0.72924414  0.56283302  1
  C  C1882  1  0.09077557  0.73829247  0.50668169  1
  N  N1883  1  0.10283123  0.64984776  0.50767341  1
  C  C1884  1  0.05658247  0.77639682  0.54801048  1
  H  H1885  1  0.03591174  0.72694616  0.58379406  1
  H  H1886  1  0.10527359  0.74215612  0.48445491  1
  C  C1887  1  0.07624625  0.78081848  0.52010731  1
  H  H1888  1  0.12271435  0.65649612  0.49239879  1
  H  H1889  1  0.10828216  0.61734338  0.52436663  1
  H  H1890  1  0.04457450  0.80944788  0.55802225  1
  H  H1891  1  0.08047720  0.81710432  0.50875523  1
  H  H1892  1  0.09408105  0.74864477  0.65138653  1
  C  C1893  1  0.08343209  0.77444173  0.66911407  1
  C  C1894  1  0.07902335  0.82516320  0.65886060  1
  C  C1895  1  0.07538729  0.75666281  0.70261798  1
  H  H1896  1  0.08623963  0.83877765  0.63337192  1
  C  C1897  1  0.06532295  0.85816326  0.68169316  1
  C  C1898  1  0.06196809  0.78991705  0.72623867  1
  N  N1899  1  0.08122029  0.70571284  0.71187942  1
  H  H1900  1  0.06176965  0.89769137  0.67435570  1
  C  C1901  1  0.05606422  0.84059510  0.71439389  1
  N  N1902  1  0.05588929  0.77008203  0.76043374  1
  H  H1903  1  0.08415387  0.68267317  0.69007154  1
  H  H1904  1  0.06742885  0.69118177  0.73046374  1
  H  H1905  1  0.04401946  0.86756182  0.72999142  1
  H  H1906  1  0.06201031  0.73268914  0.76510623  1
  C  C1907  1  0.04677830  0.79349783  0.79130024  1
  O  O1908  1  0.03903240  0.83846446  0.79097288  1
  C  C1909  1  0.04734371  0.76203563  0.82602102  1
  N  N1910  1  0.05555669  0.71270007  0.82541429  1
  C  C1911  1  0.03891529  0.78225980  0.85873428  1
  C  C1912  1  0.05535590  0.68159568  0.85551908  1
  H  H1913  1  0.03143105  0.82177962  0.85897256  1
  C  C1914  1  0.03963626  0.75126280  0.89086693  1
  C  C1915  1  0.06130075  0.62767500  0.85068895  1
  C  C1916  1  0.04777724  0.70033819  0.88923461  1
  H  H1917  1  0.03343618  0.76646371  0.91644077  1
  N  N1918  1  0.06410119  0.61232079  0.81408716  1
  O  O1919  1  0.06339269  0.59808004  0.87814721  1
  H  H1920  1  0.04749995  0.67570315  0.91367549  1
  H  H1921  1  0.06586014  0.64063566  0.79549714  1
  C  C1922  1  0.06782600  0.56399117  0.80043556  1
  C  C1923  1  0.08688770  0.55896408  0.77157787  1
  C  C1924  1  0.05215873  0.52075559  0.81283293  1
  C  C1925  1  0.09077572  0.51170731  0.75668152  1
  N  N1926  1  0.10283147  0.60015175  0.75767287  1
  C  C1927  1  0.05658248  0.47360318  0.79801077  1
  H  H1928  1  0.03591171  0.52305384  0.83379412  1
  H  H1929  1  0.10527367  0.50784392  0.73445486  1
  C  C1930  1  0.07624620  0.46918134  0.77010714  1
  H  H1931  1  0.12271409  0.59350411  0.74239889  1
  H  H1932  1  0.10828227  0.63265698  0.77436692  1
  H  H1933  1  0.04457448  0.44055212  0.80802208  1
  H  H1934  1  0.08047722  0.43289581  0.75875526  1
  H  H1935  1  -0.09408106  0.25135519  0.34861353  1
  C  C1936  1  -0.08343195  0.22555841  0.33088610  1
  C  C1937  1  -0.07902342  0.17483665  0.34113939  1
  C  C1938  1  -0.07538713  0.24333728  0.29738165  1
  H  H1939  1  -0.08623946  0.16122235  0.36662814  1
  C  C1940  1  -0.06532291  0.14183703  0.31830698  1
  C  C1941  1  -0.06196845  0.21008276  0.27376166  1
  N  N1942  1  -0.08122041  0.29428692  0.28812049  1
  H  H1943  1  -0.06176951  0.10230842  0.32564436  1
  C  C1944  1  -0.05606396  0.15940469  0.28560604  1
  N  N1945  1  -0.05588909  0.22991807  0.23956558  1
  H  H1946  1  -0.08415388  0.31732708  0.30992861  1
  H  H1947  1  -0.06742883  0.30881812  0.26953619  1
  H  H1948  1  -0.04401963  0.13243842  0.27000854  1
  H  H1949  1  -0.06201044  0.26731071  0.23489381  1
  C  C1950  1  -0.04677856  0.20650254  0.20869995  1
  O  O1951  1  -0.03903207  0.16153512  0.20902729  1
  C  C1952  1  -0.04734320  0.23796375  0.17397891  1
  N  N1953  1  -0.05555718  0.28730090  0.17458532  1
  C  C1954  1  -0.03891534  0.21774054  0.14126584  1
  C  C1955  1  -0.05535565  0.31840374  0.14448136  1
  H  H1956  1  -0.03143102  0.17822005  0.14102743  1
  C  C1957  1  -0.03963676  0.24873700  0.10913278  1
  C  C1958  1  -0.06130085  0.37232563  0.14931097  1
  C  C1959  1  -0.04777711  0.29966210  0.11076548  1
  H  H1960  1  -0.03343610  0.23353632  0.08355926  1
  N  N1961  1  -0.06410104  0.38767866  0.18591273  1
  O  O1962  1  -0.06339277  0.40191958  0.12185290  1
  H  H1963  1  -0.04749997  0.32429663  0.08632462  1
  H  H1964  1  -0.06585998  0.35936441  0.20450292  1
  C  C1965  1  -0.06782627  0.43600908  0.19956443  1
  C  C1966  1  -0.08688766  0.44103568  0.22842208  1
  C  C1967  1  -0.05215862  0.47924430  0.18716702  1
  C  C1968  1  -0.09077568  0.48829276  0.24331843  1
  N  N1969  1  -0.10283147  0.39984854  0.24232720  1
  C  C1970  1  -0.05658249  0.52639681  0.20198948  1
  H  H1971  1  -0.03591177  0.47694610  0.16620594  1
  H  H1972  1  -0.10527370  0.49215606  0.26554505  1
  C  C1973  1  -0.07624626  0.53081824  0.22989264  1
  H  H1974  1  -0.12271407  0.40649592  0.25760100  1
  H  H1975  1  -0.10828230  0.36734292  0.22563299  1
  H  H1976  1  -0.04457444  0.55944786  0.19197781  1
  H  H1977  1  -0.08047722  0.56710435  0.24124479  1
  H  H1978  1  -0.09408104  0.99864488  0.59861355  1
  C  C1979  1  -0.08343186  1.02444121  0.58088602  1
  C  C1980  1  -0.07902355  1.07516331  0.59113941  1
  C  C1981  1  -0.07538716  1.00666328  0.54738150  1
  H  H1982  1  -0.08623957  1.08877767  0.61662802  1
  C  C1983  1  -0.06532274  1.10816283  0.56830705  1
  C  C1984  1  -0.06196878  1.03991733  0.52376176  1
  N  N1985  1  -0.08122054  0.95571250  0.53812093  1
  H  H1986  1  -0.06176945  1.14769166  0.57564439  1
  C  C1987  1  -0.05606404  1.09059521  0.53560616  1
  N  N1988  1  -0.05588853  1.02008240  0.48956517  1
  H  H1989  1  -0.08415402  0.93267328  0.55992828  1
  H  H1990  1  -0.06742858  0.94118192  0.51953619  1
  H  H1991  1  -0.04401951  1.11756157  0.52000855  1
  H  H1992  1  -0.06201037  0.98268921  0.48489393  1
  C  C1993  1  -0.04677929  1.04349624  0.45870042  1
  O  O1994  1  -0.03903197  1.08846555  0.45902724  1
  C  C1995  1  -0.04734280  1.01203743  0.42397854  1
  N  N1996  1  -0.05555749  0.96269808  0.42458508  1
  C  C1997  1  -0.03891539  1.03225812  0.39126600  1
  C  C1998  1  -0.05535537  0.93159740  0.39448162  1
  H  H1999  1  -0.03143123  1.07178044  0.39102733  1
  C  C2000  1  -0.03963705  1.00126380  0.35913255  1
  C  C2001  1  -0.06130105  0.87767306  0.39931084  1
  C  C2002  1  -0.04777723  0.95033692  0.36076540  1
  H  H2003  1  -0.03343600  1.01646346  0.33355947  1
  N  N2004  1  -0.06410092  0.86232246  0.43591232  1
  O  O2005  1  -0.06339270  0.84808091  0.37185333  1
  H  H2006  1  -0.04749972  0.92570357  0.33632490  1
  H  H2007  1  -0.06585991  0.89063528  0.45450279  1
  C  C2008  1  -0.06782649  0.81399043  0.44956472  1
  C  C2009  1  -0.08688773  0.80896397  0.47842203  1
  C  C2010  1  -0.05215852  0.77075583  0.43716697  1
  C  C2011  1  -0.09077549  0.76170738  0.49331849  1
  N  N2012  1  -0.10283163  0.85015173  0.49232718  1
  C  C2013  1  -0.05658256  0.72360337  0.45198962  1
  H  H2014  1  -0.03591177  0.77305381  0.41620597  1
  H  H2015  1  -0.10527364  0.75784398  0.51554508  1
  C  C2016  1  -0.07624615  0.71918145  0.47989260  1
  H  H2017  1  -0.12271395  0.84350404  0.50760104  1
  H  H2018  1  -0.10828249  0.88265682  0.47563291  1
  H  H2019  1  -0.04457442  0.69055196  0.44197781  1
  H  H2020  1  -0.08047717  0.68289587  0.49124479  1
  H  H2021  1  0.09408107  0.50135523  0.90138633  1
  C  C2022  1  0.08343166  0.47555859  0.91911402  1
  C  C2023  1  0.07902365  0.42483662  0.90886070  1
  C  C2024  1  0.07538714  0.49333688  0.95261808  1
  H  H2025  1  0.08623932  0.41122230  0.88337183  1
  C  C2026  1  0.06532286  0.39183705  0.93169303  1
  C  C2027  1  0.06196868  0.46008287  0.97623832  1
  N  N2028  1  0.08122022  0.54428698  0.96188005  1
  H  H2029  1  0.06176956  0.35230847  0.92435572  1
  C  C2030  1  0.05606376  0.40940472  0.96439376  1
  N  N2031  1  0.05588909  0.47991722  1.01043506  1
  H  H2032  1  0.08415398  0.56732727  0.94007119  1
  H  H2033  1  0.06742890  0.55881792  0.98046331  1
  H  H2034  1  0.04401966  0.38243841  0.97999145  1
  H  H2035  1  0.06201055  0.51731104  1.01510618  1
  C  C2036  1  0.04677865  0.45650365  1.04129958  1
  O  O2037  1  0.03903183  0.41153456  1.04097260  1
  C  C2038  1  0.04734284  0.48796348  1.07602059  1
  N  N2039  1  0.05555724  0.53730136  1.07541500  1
  C  C2040  1  0.03891598  0.46774056  1.10873491  1
  C  C2041  1  0.05535606  0.56840360  1.10551857  1
  H  H2042  1  0.03143081  0.42822007  1.10897236  1
  C  C2043  1  0.03963679  0.49873693  1.14086665  1
  C  C2044  1  0.06130081  0.62232531  1.10068821  1
  C  C2045  1  0.04777637  0.54966216  1.13923456  1
  H  H2046  1  0.03343601  0.48353625  1.16644095  1
  N  N2047  1  0.06410092  0.63767881  1.06408810  1
  O  O2048  1  0.06339274  0.65191991  1.12814739  1
  H  H2049  1  0.04750016  0.57429658  1.16367544  1
  H  H2050  1  0.06586023  0.60936412  1.04549694  1
  C  C2051  1  0.06782638  0.68600905  1.05043513  1
  C  C2052  1  0.08688744  0.69103574  1.02157827  1
  C  C2053  1  0.05215864  0.72924450  1.06283341  1
  C  C2054  1  0.09077581  0.73829273  1.00668124  1
  N  N2055  1  0.10283161  0.64984838  1.00767274  1
  C  C2056  1  0.05658261  0.77639691  1.04801042  1
  H  H2057  1  0.03591195  0.72694608  1.08379407  1
  H  H2058  1  0.10527352  0.74215621  0.98445496  1
  C  C2059  1  0.07624598  0.78081804  1.02010732  1
  H  H2060  1  0.12271416  0.65649585  0.99239899  1
  H  H2061  1  0.10828220  0.61734307  1.02436694  1
  H  H2062  1  0.04457454  0.80944779  1.05802234  1
  H  H2063  1  0.08047718  0.81710450  1.00875521  1
  H  H2064  1  0.59408110  0.24864482  0.15138650  1
  C  C2065  1  0.58343197  0.27444140  0.16911400  1
  C  C2066  1  0.57902346  0.32516341  0.15886041  1
  C  C2067  1  0.57538708  0.25666295  0.20261834  1
  H  H2068  1  0.58623953  0.33877762  0.13337199  1
  C  C2069  1  0.56532284  0.35816291  0.18169311  1
  C  C2070  1  0.56196854  0.28991703  0.22623822  1
  N  N2071  1  0.58122052  0.20571287  0.21187918  1
  H  H2072  1  0.56176948  0.39769165  0.17435559  1
  C  C2073  1  0.55606396  0.34059547  0.21439384  1
  N  N2074  1  0.55588876  0.27008246  0.26043472  1
  H  H2075  1  0.58415383  0.18267310  0.19007151  1
  H  H2076  1  0.56742881  0.19118187  0.23046398  1
  H  H2077  1  0.54401949  0.36756163  0.22999143  1
  H  H2078  1  0.56201024  0.23268893  0.26510603  1
  C  C2079  1  0.54677885  0.29349685  0.29129979  1
  O  O2080  1  0.53903232  0.33846536  0.29097289  1
  C  C2081  1  0.54734326  0.26203613  0.32602108  1
  N  N2082  1  0.55555709  0.21269918  0.32541466  1
  C  C2083  1  0.53891514  0.28225954  0.35873423  1
  C  C2084  1  0.55535573  0.18159614  0.35551846  1
  H  H2085  1  0.53143119  0.32177994  0.35897263  1
  C  C2086  1  0.53963687  0.25126296  0.39086707  1
  C  C2087  1  0.56130076  0.12767417  0.35068950  1
  C  C2088  1  0.54777706  0.20033798  0.38923471  1
  H  H2089  1  0.53343605  0.26646372  0.41644084  1
  N  N2090  1  0.56410108  0.11232157  0.31408696  1
  O  O2091  1  0.56339276  0.09808063  0.37814694  1
  H  H2092  1  0.54749985  0.17570334  0.41367529  1
  H  H2093  1  0.56585998  0.14063549  0.29549721  1
  C  C2094  1  0.56782632  0.06399079  0.30043556  1
  C  C2095  1  0.58688766  0.05896415  0.27157791  1
  C  C2096  1  0.55215866  0.02075585  0.31283301  1
  C  C2097  1  0.59077571  0.01170736  0.25668153  1
  N  N2098  1  0.60283143  0.10015194  0.25767302  1
  C  C2099  1  0.55658255  -0.02639683  0.29801042  1
  H  H2100  1  0.53591182  0.02305384  0.33379407  1
  H  H2101  1  0.60527362  0.00784399  0.23445496  1
  C  C2102  1  0.57624622  -0.03081835  0.27010739  1
  H  H2103  1  0.62271416  0.09350399  0.24239886  1
  H  H2104  1  0.60828233  0.13265686  0.27436694  1
  H  H2105  1  0.54457444  -0.05944792  0.30802217  1
  H  H2106  1  0.58047719  -0.06710429  0.25875519  1
  H  H2107  1  0.40591890  -0.24864471  -0.15138638  1
  C  C2108  1  0.41656819  -0.27444149  -0.16911415  1
  C  C2109  1  0.42097646  -0.32516334  -0.15886038  1
  C  C2110  1  0.42461274  -0.25666291  -0.20261815  1
  H  H2111  1  0.41376058  -0.33877762  -0.13337194  1
  C  C2112  1  0.43467717  -0.35816287  -0.18169318  1
  C  C2113  1  0.43803154  -0.28991717  -0.22623847  1
  N  N2114  1  0.41877966  -0.20571307  -0.21187967  1
  H  H2115  1  0.43823049  -0.39769174  -0.17435561  1
  C  C2116  1  0.44393602  -0.34059536  -0.21439376  1
  N  N2117  1  0.44411110  -0.27008237  -0.26043464  1
  H  H2118  1  0.41584609  -0.18267282  -0.19007132  1
  H  H2119  1  0.43257109  -0.19118187  -0.23046369  1
  H  H2120  1  0.45598038  -0.36756163  -0.22999151  1
  H  H2121  1  0.43798934  -0.23268904  -0.26510624  1
  C  C2122  1  0.45322133  -0.29349703  -0.29129991  1
  O  O2123  1  0.46096827  -0.33846512  -0.29097255  1
  C  C2124  1  0.45265685  -0.26203622  -0.32602104  1
  N  N2125  1  0.44444270  -0.21269918  -0.32541496  1
  C  C2126  1  0.46108500  -0.28225934  -0.35873411  1
  C  C2127  1  0.44464456  -0.18159626  -0.35551811  1
  H  H2128  1  0.46856885  -0.32177990  -0.35897259  1
  C  C2129  1  0.46036277  -0.25126299  -0.39086730  1
  C  C2130  1  0.43869921  -0.12767402  -0.35069003  1
  C  C2131  1  0.45222277  -0.20033785  -0.38923487  1
  H  H2132  1  0.46656400  -0.26646368  -0.41644069  1
  N  N2133  1  0.43589885  -0.11232123  -0.31408645  1
  O  O2134  1  0.43660725  -0.09808084  -0.37814671  1
  H  H2135  1  0.45250008  -0.17570345  -0.41367525  1
  H  H2136  1  0.43414007  -0.14063540  -0.29549738  1
  C  C2137  1  0.43217363  -0.06399098  -0.30043591  1
  C  C2138  1  0.41311247  -0.05896379  -0.27157761  1
  C  C2139  1  0.44784145  -0.02075569  -0.31283274  1
  C  C2140  1  0.40922453  -0.01170753  -0.25668166  1
  N  N2141  1  0.39716859  -0.10015220  -0.25767308  1
  C  C2142  1  0.44341771  0.02639675  -0.29801059  1
  H  H2143  1  0.46408829  -0.02305380  -0.33379411  1
  H  H2144  1  0.39472632  -0.00784395  -0.23445498  1
  C  C2145  1  0.42375353  0.03081850  -0.27010741  1
  H  H2146  1  0.37728589  -0.09350385  -0.24239886  1
  H  H2147  1  0.39171791  -0.13265676  -0.27436679  1
  H  H2148  1  0.45542558  0.05944793  -0.30802217  1
  H  H2149  1  0.41952279  0.06710419  -0.25875526  1
  H  H2150  1  0.40591907  0.49864480  0.09861366  1
  C  C2151  1  0.41656812  0.52444157  0.08088607  1
  C  C2152  1  0.42097634  0.57516340  0.09113929  1
  C  C2153  1  0.42461297  0.50666239  0.04738178  1
  H  H2154  1  0.41376075  0.58877764  0.11662823  1
  C  C2155  1  0.43467715  0.60816280  0.06830698  1
  C  C2156  1  0.43803143  0.53991721  0.02376145  1
  N  N2157  1  0.41877960  0.45571367  0.03812040  1
  H  H2158  1  0.43823057  0.64769167  0.07564437  1
  C  C2159  1  0.44393618  0.59059531  0.03560626  1
  N  N2160  1  0.44411069  0.52008281  -0.01043482  1
  H  H2161  1  0.41584618  0.43267275  0.05992870  1
  H  H2162  1  0.43257111  0.44118171  0.01953627  1
  H  H2163  1  0.45598028  0.61756162  0.02000843  1
  H  H2164  1  0.43798917  0.48268890  -0.01510639  1
  C  C2165  1  0.45322187  0.54349669  -0.04129951  1
  O  O2166  1  0.46096858  0.58846516  -0.04097239  1
  C  C2167  1  0.45265711  0.51203619  -0.07602106  1
  N  N2168  1  0.44444265  0.46269920  -0.07541471  1
  C  C2169  1  0.46108448  0.53225956  -0.10873436  1
  C  C2170  1  0.44464454  0.43159620  -0.10551855  1
  H  H2171  1  0.46856918  0.57177983  -0.10897246  1
  C  C2172  1  0.46036291  0.50126296  -0.14086725  1
  C  C2173  1  0.43869913  0.37767396  -0.10068933  1
  C  C2174  1  0.45222330  0.45033782  -0.13923441  1
  H  H2175  1  0.46656394  0.51646369  -0.16644076  1
  N  N2176  1  0.43589897  0.36232164  -0.06408697  1
  O  O2177  1  0.43660718  0.34808058  -0.12814701  1
  H  H2178  1  0.45249970  0.42570340  -0.16367551  1
  H  H2179  1  0.43414006  0.39063542  -0.04549726  1
  C  C2180  1  0.43217375  0.31399064  -0.05043583  1
  C  C2181  1  0.41311229  0.30896400  -0.02157762  1
  C  C2182  1  0.44784123  0.27075589  -0.06283284  1
  C  C2183  1  0.40922454  0.26170756  -0.00668159  1
  N  N2184  1  0.39716867  0.35015207  -0.00767315  1
  C  C2185  1  0.44341763  0.22360323  -0.04801046  1
  H  H2186  1  0.46408827  0.27305386  -0.08379415  1
  H  H2187  1  0.39472638  0.25784390  0.01554515  1
  C  C2188  1  0.42375374  0.21918148  -0.02010729  1
  H  H2189  1  0.37728582  0.34350389  0.00760120  1
  H  H2190  1  0.39171774  0.38265669  -0.02436684  1
  H  H2191  1  0.45542553  0.19055206  -0.05802220  1
  H  H2192  1  0.41952285  0.18289579  -0.00875523  1
  H  H2193  1  0.59408104  0.00135519  0.40138643  1
  C  C2194  1  0.58343194  -0.02444153  0.41911378  1
  C  C2195  1  0.57902349  -0.07516330  0.40886054  1
  C  C2196  1  0.57538710  -0.00666273  0.45261867  1
  H  H2197  1  0.58623944  -0.08877764  0.38337193  1
  C  C2198  1  0.56532281  -0.10816305  0.43169302  1
  C  C2199  1  0.56196850  -0.03991752  0.47623796  1
  N  N2200  1  0.58122074  0.04428703  0.46187902  1
  H  H2201  1  0.56176943  -0.14769153  0.42435564  1
  C  C2202  1  0.55606391  -0.09059513  0.46439394  1
  N  N2203  1  0.55588912  -0.02008175  0.51043497  1
  H  H2204  1  0.58415395  0.06732690  0.44007167  1
  H  H2205  1  0.56742873  0.05881829  0.48046402  1
  H  H2206  1  0.54401963  -0.11756158  0.47999147  1
  H  H2207  1  0.56201057  0.01731063  0.51510621  1
  C  C2208  1  0.54677853  -0.04349743  0.54129968  1
  O  O2209  1  0.53903198  -0.08846477  0.54097267  1
  C  C2210  1  0.54734315  -0.01203583  0.57602118  1
  N  N2211  1  0.55555707  0.03730064  0.57541461  1
  C  C2212  1  0.53891542  -0.03225957  0.60873421  1
  C  C2213  1  0.55535555  0.06840380  0.60551863  1
  H  H2214  1  0.53143106  -0.07177986  0.60897258  1
  C  C2215  1  0.53963676  -0.00126294  0.64086721  1
  C  C2216  1  0.56130080  0.12232597  0.60068888  1
  C  C2217  1  0.54777698  0.04966217  0.63923444  1
  H  H2218  1  0.53343611  -0.01646369  0.66644075  1
  N  N2219  1  0.56410103  0.13767798  0.56408736  1
  O  O2220  1  0.56339264  0.15191959  0.62814704  1
  H  H2221  1  0.54749994  0.07429664  0.66367539  1
  H  H2222  1  0.56586002  0.10936468  0.54549727  1
  C  C2223  1  0.56782613  0.18600964  0.55043568  1
  C  C2224  1  0.58688783  0.19103584  0.52157773  1
  C  C2225  1  0.55215878  0.22924408  0.56283283  1
  C  C2226  1  0.59077543  0.23829256  0.50668169  1
  N  N2227  1  0.60283150  0.14984820  0.50767299  1
  C  C2228  1  0.55658243  0.27639690  0.54801060  1
  H  H2229  1  0.53591177  0.22694622  0.58379413  1
  H  H2230  1  0.60527369  0.24215613  0.48445480  1
  C  C2231  1  0.57624639  0.28081838  0.52010719  1
  H  H2232  1  0.62271415  0.15649604  0.49239891  1
  H  H2233  1  0.60828218  0.11734314  0.52436693  1
  H  H2234  1  0.54457452  0.30944793  0.55802221  1
  H  H2235  1  0.58047711  0.31710431  0.50875516  1
  H  H2236  1  0.59408113  0.24864478  0.65138646  1
  C  C2237  1  0.58343187  0.27444160  0.66911400  1
  C  C2238  1  0.57902349  0.32516330  0.65886060  1
  C  C2239  1  0.57538724  0.25666251  0.70261836  1
  H  H2240  1  0.58623960  0.33877773  0.63337192  1
  C  C2241  1  0.56532294  0.35816280  0.68169308  1
  C  C2242  1  0.56196830  0.28991699  0.72623867  1
  N  N2243  1  0.58122037  0.20571336  0.71187957  1
  H  H2244  1  0.56176949  0.39769169  0.67435562  1
  C  C2245  1  0.55606389  0.34059545  0.71439381  1
  N  N2246  1  0.55588908  0.27008250  0.76043397  1
  H  H2247  1  0.58415403  0.18267287  0.69007132  1
  H  H2248  1  0.56742880  0.19118185  0.73046382  1
  H  H2249  1  0.54401950  0.36756154  0.72999135  1
  H  H2250  1  0.56201022  0.23268897  0.76510615  1
  C  C2251  1  0.54677883  0.29349697  0.79130024  1
  O  O2252  1  0.53903242  0.33846516  0.79097288  1
  C  C2253  1  0.54734308  0.26203667  0.82602140  1
  N  N2254  1  0.55555704  0.21269885  0.82541452  1
  C  C2255  1  0.53891591  0.28225927  0.85873405  1
  C  C2256  1  0.55535593  0.18159645  0.85551915  1
  H  H2257  1  0.53143104  0.32177996  0.85897264  1
  C  C2258  1  0.53963631  0.25126328  0.89086723  1
  C  C2259  1  0.56130073  0.12767447  0.85068895  1
  C  C2260  1  0.54777678  0.20033796  0.88923408  1
  H  H2261  1  0.53343619  0.26646359  0.91644062  1
  N  N2262  1  0.56410114  0.11232108  0.81408739  1
  O  O2263  1  0.56339265  0.09808039  0.87814699  1
  H  H2264  1  0.54749984  0.17570321  0.91367549  1
  H  H2265  1  0.56586015  0.14063570  0.79549714  1
  C  C2266  1  0.56782611  0.06399113  0.80043548  1
  C  C2267  1  0.58688780  0.05896388  0.77157810  1
  C  C2268  1  0.55215875  0.02075550  0.81283308  1
  C  C2269  1  0.59077582  0.01170756  0.75668160  1
  N  N2270  1  0.60283158  0.10015185  0.75767309  1
  C  C2271  1  0.55658287  -0.02639667  0.79801054  1
  H  H2272  1  0.53591183  0.02305393  0.83379412  1
  H  H2273  1  0.60527360  0.00784386  0.73445486  1
  C  C2274  1  0.57624593  -0.03081837  0.77010714  1
  H  H2275  1  0.62271417  0.09350420  0.74239897  1
  H  H2276  1  0.60828239  0.13265673  0.77436692  1
  H  H2277  1  0.54457448  -0.05944794  0.80802231  1
  H  H2278  1  0.58047719  -0.06710433  0.75875526  1
  H  H2279  1  0.40591896  -0.24864476  0.34861361  1
  C  C2280  1  0.41656806  -0.27444182  0.33088614  1
  C  C2281  1  0.42097647  -0.32516325  0.34113935  1
  C  C2282  1  0.42461299  -0.25666255  0.29738157  1
  H  H2283  1  0.41376062  -0.33877764  0.36662818  1
  C  C2284  1  0.43467715  -0.35816302  0.31830700  1
  C  C2285  1  0.43803149  -0.28991772  0.27376196  1
  N  N2286  1  0.41877938  -0.20571321  0.28812077  1
  H  H2287  1  0.43823050  -0.39769152  0.32564433  1
  C  C2288  1  0.44393612  -0.34059500  0.28560604  1
  N  N2289  1  0.44411085  -0.27008181  0.23956495  1
  H  H2290  1  0.41584617  -0.18267302  0.30992846  1
  H  H2291  1  0.43257122  -0.19118174  0.26953609  1
  H  H2292  1  0.45598036  -0.36756160  0.27000851  1
  H  H2293  1  0.43798942  -0.23268937  0.23489381  1
  C  C2294  1  0.45322164  -0.29349735  0.20870039  1
  O  O2295  1  0.46096815  -0.33846483  0.20902741  1
  C  C2296  1  0.45265690  -0.26203609  0.17397880  1
  N  N2297  1  0.44444281  -0.21269914  0.17458530  1
  C  C2298  1  0.46108448  -0.28225945  0.14126578  1
  C  C2299  1  0.44464423  -0.18159627  0.14448133  1
  H  H2300  1  0.46856908  -0.32177981  0.14102748  1
  C  C2301  1  0.46036320  -0.25126296  0.10913279  1
  C  C2302  1  0.43869910  -0.12767411  0.14931084  1
  C  C2303  1  0.45222318  -0.20033785  0.11076555  1
  H  H2304  1  0.46656393  -0.26646361  0.08355930  1
  N  N2305  1  0.43589901  -0.11232175  0.18591279  1
  O  O2306  1  0.43660723  -0.09808049  0.12185298  1
  H  H2307  1  0.45249990  -0.17570333  0.08632458  1
  H  H2308  1  0.43413997  -0.14063538  0.20450277  1
  C  C2309  1  0.43217369  -0.06399048  0.19956449  1
  C  C2310  1  0.41311244  -0.05896413  0.22842206  1
  C  C2311  1  0.44784137  -0.02075581  0.18716706  1
  C  C2312  1  0.40922430  -0.01170740  0.24331852  1
  N  N2313  1  0.39716854  -0.10015190  0.24232704  1
  C  C2314  1  0.44341743  0.02639683  0.20198956  1
  H  H2315  1  0.46408821  -0.02305383  0.16620587  1
  H  H2316  1  0.39472640  -0.00784386  0.26554501  1
  C  C2317  1  0.42375389  0.03081835  0.22989262  1
  H  H2318  1  0.37728587  -0.09350398  0.25760113  1
  H  H2319  1  0.39171784  -0.13265676  0.22563318  1
  H  H2320  1  0.45542558  0.05944796  0.19197781  1
  H  H2321  1  0.41952279  0.06710437  0.24124479  1
  H  H2322  1  0.40591892  0.49864480  0.59861348  1
  C  C2323  1  0.41656810  0.52444162  0.58088624  1
  C  C2324  1  0.42097668  0.57516336  0.59113949  1
  C  C2325  1  0.42461283  0.50666244  0.54738135  1
  H  H2326  1  0.41376048  0.58877764  0.61662809  1
  C  C2327  1  0.43467710  0.60816306  0.56830697  1
  C  C2328  1  0.43803158  0.53991725  0.52376176  1
  N  N2329  1  0.41877946  0.45571345  0.53812101  1
  H  H2330  1  0.43823042  0.64769162  0.57564431  1
  C  C2331  1  0.44393609  0.59059526  0.53560594  1
  N  N2332  1  0.44411115  0.52008214  0.48956543  1
  H  H2333  1  0.41584616  0.43267289  0.55992851  1
  H  H2334  1  0.43257133  0.44118162  0.51953596  1
  H  H2335  1  0.45598041  0.61756158  0.52000859  1
  H  H2336  1  0.43798952  0.48268904  0.48489382  1
  C  C2337  1  0.45322132  0.54349714  0.45870011  1
  O  O2338  1  0.46096800  0.58846516  0.45902728  1
  C  C2339  1  0.45265673  0.51203619  0.42397888  1
  N  N2340  1  0.44444302  0.46269916  0.42458538  1
  C  C2341  1  0.46108493  0.53225934  0.39126596  1
  C  C2342  1  0.44464436  0.43159620  0.39448147  1
  H  H2343  1  0.46856885  0.57177987  0.39102737  1
  C  C2344  1  0.46036327  0.50126300  0.35913274  1
  C  C2345  1  0.43869926  0.37767382  0.39931027  1
  C  C2346  1  0.45222265  0.45033786  0.36076532  1
  H  H2347  1  0.46656393  0.51646365  0.33355924  1
  N  N2348  1  0.43589887  0.36232175  0.43591323  1
  O  O2349  1  0.43660726  0.34808081  0.37185325  1
  H  H2350  1  0.45250014  0.42570327  0.33632460  1
  H  H2351  1  0.43414001  0.39063524  0.45450272  1
  C  C2352  1  0.43217354  0.31399075  0.44956434  1
  C  C2353  1  0.41311256  0.30896384  0.47842222  1
  C  C2354  1  0.44784150  0.27075582  0.43716712  1
  C  C2355  1  0.40922439  0.26170761  0.49331849  1
  N  N2356  1  0.39716853  0.35015225  0.49232696  1
  C  C2357  1  0.44341748  0.22360323  0.45198950  1
  H  H2358  1  0.46408816  0.27305380  0.41620597  1
  H  H2359  1  0.39472634  0.25784390  0.51554519  1
  C  C2360  1  0.42375374  0.21918143  0.47989260  1
  H  H2361  1  0.37728594  0.34350393  0.50760123  1
  H  H2362  1  0.39171780  0.38265669  0.47563317  1
  H  H2363  1  0.45542548  0.19055204  0.44197781  1
  H  H2364  1  0.41952282  0.18289569  0.49124487  1
  H  H2365  1  0.59408104  0.00135522  0.90138641  1
  C  C2366  1  0.58343195  -0.02444165  0.91911394  1
  C  C2367  1  0.57902341  -0.07516314  0.90886078  1
  C  C2368  1  0.57538713  -0.00666265  0.95261830  1
  H  H2369  1  0.58623949  -0.08877773  0.88337183  1
  C  C2370  1  0.56532299  -0.10816293  0.93169280  1
  C  C2371  1  0.56196850  -0.03991716  0.97623847  1
  N  N2372  1  0.58122022  0.04428665  0.96187998  1
  H  H2373  1  0.56176953  -0.14769163  0.92435572  1
  C  C2374  1  0.55606379  -0.09059534  0.96439414  1
  N  N2375  1  0.55588894  -0.02008269  1.01043460  1
  H  H2376  1  0.58415403  0.06732734  0.94007126  1
  H  H2377  1  0.56742890  0.05881805  0.98046347  1
  H  H2378  1  0.54401961  -0.11756145  0.97999137  1
  H  H2379  1  0.56201041  0.01731109  1.01510618  1
  C  C2380  1  0.54677871  -0.04349654  1.04129996  1
  O  O2381  1  0.53903210  -0.08846530  1.04097276  1
  C  C2382  1  0.54734299  -0.01203614  1.07602097  1
  N  N2383  1  0.55555708  0.03730079  1.07541470  1
  C  C2384  1  0.53891575  -0.03225955  1.10873468  1
  C  C2385  1  0.55535587  0.06840387  1.10551887  1
  H  H2386  1  0.53143098  -0.07177975  1.10897251  1
  C  C2387  1  0.53963681  -0.00126292  1.14086688  1
  C  C2388  1  0.56130083  0.12232521  1.10068821  1
  C  C2389  1  0.54777650  0.04966211  1.13923433  1
  H  H2390  1  0.53343605  -0.01646370  1.16644087  1
  N  N2391  1  0.56410112  0.13767867  1.06408772  1
  O  O2392  1  0.56339282  0.15191997  1.12814739  1
  H  H2393  1  0.54750012  0.07429658  1.16367544  1
  H  H2394  1  0.56586018  0.10936435  1.04549724  1
  C  C2395  1  0.56782599  0.18600932  1.05043558  1
  C  C2396  1  0.58688769  0.19103604  1.02157789  1
  C  C2397  1  0.55215899  0.22924451  1.06283288  1
  C  C2398  1  0.59077559  0.23829245  1.00668178  1
  N  N2399  1  0.60283159  0.14984830  1.00767289  1
  C  C2400  1  0.55658255  0.27639685  1.04801072  1
  H  H2401  1  0.53591179  0.22694611  1.08379422  1
  H  H2402  1  0.60527363  0.24215616  0.98445473  1
  C  C2403  1  0.57624619  0.28081840  1.02010694  1
  H  H2404  1  0.62271421  0.15649585  0.99239899  1
  H  H2405  1  0.60828227  0.11734316  1.02436694  1
  H  H2406  1  0.54457462  0.30944780  1.05802226  1
  H  H2407  1  0.58047715  0.31710418  1.00875528  1
  H  H2408  1  0.59408105  0.74864468  0.15138633  1
  C  C2409  1  0.58343191  0.77444173  0.16911410  1
  C  C2410  1  0.57902343  0.82516311  0.15886035  1
  C  C2411  1  0.57538746  0.75666237  0.20261838  1
  H  H2412  1  0.58623949  0.83877774  0.13337198  1
  C  C2413  1  0.56532284  0.85816308  0.18169324  1
  C  C2414  1  0.56196852  0.78991731  0.22623841  1
  N  N2415  1  0.58122044  0.70571387  0.21187948  1
  H  H2416  1  0.56176944  0.89769155  0.17435559  1
  C  C2417  1  0.55606408  0.84059537  0.21439385  1
  N  N2418  1  0.55588899  0.77008247  0.26043479  1
  H  H2419  1  0.58415395  0.68267277  0.19007130  1
  H  H2420  1  0.56742866  0.69118168  0.23046375  1
  H  H2421  1  0.54401956  0.86756164  0.22999143  1
  H  H2422  1  0.56201060  0.73268914  0.26510624  1
  C  C2423  1  0.54677887  0.79349676  0.29129975  1
  O  O2424  1  0.53903163  0.83846527  0.29097255  1
  C  C2425  1  0.54734292  0.76203590  0.32602078  1
  N  N2426  1  0.55555733  0.71269922  0.32541470  1
  C  C2427  1  0.53891527  0.78225971  0.35873427  1
  C  C2428  1  0.55535555  0.68159626  0.35551823  1
  H  H2429  1  0.53143089  0.82177998  0.35897255  1
  C  C2430  1  0.53963702  0.75126316  0.39086722  1
  C  C2431  1  0.56130111  0.62767406  0.35068962  1
  C  C2432  1  0.54777684  0.70033766  0.38923479  1
  H  H2433  1  0.53343600  0.76646362  0.41644072  1
  N  N2434  1  0.56410106  0.61232177  0.31408707  1
  O  O2435  1  0.56339284  0.59808071  0.37814678  1
  H  H2436  1  0.54750012  0.67570342  0.41367540  1
  H  H2437  1  0.56586003  0.64063539  0.29549732  1
  C  C2438  1  0.56782649  0.56399064  0.30043537  1
  C  C2439  1  0.58688758  0.55896364  0.27157799  1
  C  C2440  1  0.55215858  0.52075582  0.31283331  1
  C  C2441  1  0.59077576  0.51170754  0.25668155  1
  N  N2442  1  0.60283153  0.60015242  0.25767321  1
  C  C2443  1  0.55658261  0.47360318  0.29801023  1
  H  H2444  1  0.53591188  0.52305393  0.33379403  1
  H  H2445  1  0.60527359  0.50784383  0.23445498  1
  C  C2446  1  0.57624596  0.46918165  0.27010739  1
  H  H2447  1  0.62271426  0.59350393  0.24239884  1
  H  H2448  1  0.60828229  0.63265644  0.27436664  1
  H  H2449  1  0.54457438  0.44055216  0.30802226  1
  H  H2450  1  0.58047710  0.43289577  0.25875522  1
  H  H2451  1  0.40591901  0.25135521  -0.15138639  1
  C  C2452  1  0.41656808  0.22555844  -0.16911393  1
  C  C2453  1  0.42097644  0.17483664  -0.15886065  1
  C  C2454  1  0.42461300  0.24333706  -0.20261838  1
  H  H2455  1  0.41376058  0.16122235  -0.13337186  1
  C  C2456  1  0.43467710  0.14183702  -0.18169303  1
  C  C2457  1  0.43803142  0.21008258  -0.22623811  1
  N  N2458  1  0.41877940  0.29428721  -0.21187931  1
  H  H2459  1  0.43823043  0.10230843  -0.17435567  1
  C  C2460  1  0.44393606  0.15940484  -0.21439397  1
  N  N2461  1  0.44411083  0.22991816  -0.26043506  1
  H  H2462  1  0.41584607  0.31732694  -0.19007151  1
  H  H2463  1  0.43257113  0.30881817  -0.23046390  1
  H  H2464  1  0.45598034  0.13243840  -0.22999151  1
  H  H2465  1  0.43798927  0.26731057  -0.26510624  1
  C  C2466  1  0.45322158  0.20650276  -0.29129970  1
  O  O2467  1  0.46096835  0.16153510  -0.29097245  1
  C  C2468  1  0.45265702  0.23796353  -0.32602093  1
  N  N2469  1  0.44444267  0.28730114  -0.32541489  1
  C  C2470  1  0.46108448  0.21774076  -0.35873442  1
  C  C2471  1  0.44464426  0.31840356  -0.35551849  1
  H  H2472  1  0.46856913  0.17822001  -0.35897248  1
  C  C2473  1  0.46036305  0.24873672  -0.39086718  1
  C  C2474  1  0.43869905  0.37232601  -0.35068969  1
  C  C2475  1  0.45222320  0.29966237  -0.38923445  1
  H  H2476  1  0.46656406  0.23353632  -0.41644072  1
  N  N2477  1  0.43589891  0.38767857  -0.31408671  1
  O  O2478  1  0.43660731  0.40191918  -0.37814690  1
  H  H2479  1  0.45249987  0.32429658  -0.41367552  1
  H  H2480  1  0.43413998  0.35936452  -0.29549732  1
  C  C2481  1  0.43217367  0.43600908  -0.30043568  1
  C  C2482  1  0.41311243  0.44103617  -0.27157806  1
  C  C2483  1  0.44784125  0.47924443  -0.31283286  1
  C  C2484  1  0.40922442  0.48829240  -0.25668143  1
  N  N2485  1  0.39716832  0.39984810  -0.25767264  1
  C  C2486  1  0.44341754  0.52639667  -0.29801057  1
  H  H2487  1  0.46408830  0.47694610  -0.33379422  1
  H  H2488  1  0.39472638  0.49215611  -0.23445500  1
  C  C2489  1  0.42375370  0.53081847  -0.27010743  1
  H  H2490  1  0.37728606  0.40649597  -0.24239905  1
  H  H2491  1  0.39171781  0.36734309  -0.27436706  1
  H  H2492  1  0.45542541  0.55944791  -0.30802236  1
  H  H2493  1  0.41952278  0.56710426  -0.25875536  1
  H  H2494  1  0.40591903  0.99864470  0.09861364  1
  C  C2495  1  0.41656820  1.02444192  0.08088631  1
  C  C2496  1  0.42097644  1.07516277  0.09113940  1
  C  C2497  1  0.42461300  1.00666212  0.04738132  1
  H  H2498  1  0.41376066  1.08877767  0.11662820  1
  C  C2499  1  0.43467722  1.10816346  0.06830720  1
  C  C2500  1  0.43803125  1.03991805  0.02376207  1
  N  N2501  1  0.41877929  0.95571313  0.03812112  1
  H  H2502  1  0.43823045  1.14769157  0.07564428  1
  C  C2503  1  0.44393603  1.09059459  0.03560595  1
  N  N2504  1  0.44411109  1.02008178  -0.01043551  1
  H  H2505  1  0.41584608  0.93267319  0.05992833  1
  H  H2506  1  0.43257127  0.94118175  0.01953591  1
  H  H2507  1  0.45598044  1.11756175  0.02000837  1
  H  H2508  1  0.43798938  0.98268947  -0.01510611  1
  C  C2509  1  0.45322140  1.04349678  -0.04129949  1
  O  O2510  1  0.46096831  1.08846520  -0.04097249  1
  C  C2511  1  0.45265737  1.01203734  -0.07602135  1
  N  N2512  1  0.44444249  0.96269826  -0.07541481  1
  C  C2513  1  0.46108451  1.03225857  -0.10873408  1
  C  C2514  1  0.44464455  0.93159668  -0.10551845  1
  H  H2515  1  0.46856901  1.07178026  -0.10897258  1
  C  C2516  1  0.46036303  1.00126380  -0.14086747  1
  C  C2517  1  0.43869913  0.87767404  -0.10068954  1
  C  C2518  1  0.45222288  0.95033737  -0.13923459  1
  H  H2519  1  0.46656398  1.01646346  -0.16644051  1
  N  N2520  1  0.43589898  0.86232112  -0.06408666  1
  O  O2521  1  0.43660740  0.84808064  -0.12814695  1
  H  H2522  1  0.45249997  0.92570339  -0.16367542  1
  H  H2523  1  0.43414004  0.89063555  -0.04549729  1
  C  C2524  1  0.43217379  0.81399079  -0.05043614  1
  C  C2525  1  0.41311202  0.80896459  -0.02157742  1
  C  C2526  1  0.44784126  0.77075592  -0.06283263  1
  C  C2527  1  0.40922469  0.76170711  -0.00668173  1
  N  N2528  1  0.39716893  0.85015137  -0.00767316  1
  C  C2529  1  0.44341780  0.72360288  -0.04801064  1
  H  H2530  1  0.46408832  0.77305381  -0.08379420  1
  H  H2531  1  0.39472634  0.75784398  0.01554512  1
  C  C2532  1  0.42375349  0.71918189  -0.02010720  1
  H  H2533  1  0.37728581  0.84350386  0.00760132  1
  H  H2534  1  0.39171761  0.88265691  -0.02436704  1
  H  H2535  1  0.45542559  0.69055218  -0.05802208  1
  H  H2536  1  0.41952283  0.68289565  -0.00875519  1
  H  H2537  1  0.59408109  0.50135528  0.40138632  1
  C  C2538  1  0.58343174  0.47555819  0.41911405  1
  C  C2539  1  0.57902384  0.42483680  0.40886080  1
  C  C2540  1  0.57538713  0.49333741  0.45261829  1
  H  H2541  1  0.58623934  0.41122230  0.38337182  1
  C  C2542  1  0.56532283  0.39183701  0.43169298  1
  C  C2543  1  0.56196863  0.46008282  0.47623838  1
  N  N2544  1  0.58122048  0.54428649  0.46187970  1
  H  H2545  1  0.56176939  0.35230841  0.42435564  1
  C  C2546  1  0.55606374  0.40940468  0.46439382  1
  N  N2547  1  0.55588917  0.47991722  0.51043505  1
  H  H2548  1  0.58415399  0.56732727  0.44007137  1
  H  H2549  1  0.56742882  0.55881818  0.48046368  1
  H  H2550  1  0.54401963  0.38243845  0.47999147  1
  H  H2551  1  0.56201079  0.51731099  0.51510628  1
  C  C2552  1  0.54677829  0.45650338  0.54129946  1
  O  O2553  1  0.53903150  0.41153469  0.54097236  1
  C  C2554  1  0.54734289  0.48796361  0.57602149  1
  N  N2555  1  0.55555744  0.53730082  0.57541464  1
  C  C2556  1  0.53891557  0.46774056  0.60873391  1
  C  C2557  1  0.55535528  0.56840369  0.60551890  1
  H  H2558  1  0.53143091  0.42822016  0.60897258  1
  C  C2559  1  0.53963704  0.49873698  0.64086782  1
  C  C2560  1  0.56130091  0.62232612  0.60068960  1
  C  C2561  1  0.54777680  0.54966199  0.63923390  1
  H  H2562  1  0.53343611  0.48353647  0.66644052  1
  N  N2563  1  0.56410104  0.63767823  0.56408676  1
  O  O2564  1  0.56339280  0.65191915  0.62814685  1
  H  H2565  1  0.54750018  0.57429667  0.66367554  1
  H  H2566  1  0.56585996  0.60936470  0.54549738  1
  C  C2567  1  0.56782643  0.68600932  0.55043576  1
  C  C2568  1  0.58688757  0.69103583  0.52157773  1
  C  C2569  1  0.55215857  0.72924427  0.56283286  1
  C  C2570  1  0.59077569  0.73829242  0.50668154  1
  N  N2571  1  0.60283130  0.64984820  0.50767303  1
  C  C2572  1  0.55658250  0.77639673  0.54801033  1
  H  H2573  1  0.53591177  0.72694612  0.58379417  1
  H  H2574  1  0.60527362  0.74215612  0.48445510  1
  C  C2575  1  0.57624619  0.78081848  0.52010746  1
  H  H2576  1  0.62271424  0.65649616  0.49239879  1
  H  H2577  1  0.60828231  0.61734316  0.52436689  1
  H  H2578  1  0.54457430  0.80944797  0.55802225  1
  H  H2579  1  0.58047711  0.81710424  0.50875523  1
  H  H2580  1  0.59408117  0.74864486  0.65138661  1
  C  C2581  1  0.58343187  0.77444146  0.66911369  1
  C  C2582  1  0.57902369  0.82516320  0.65886045  1
  C  C2583  1  0.57538723  0.75666263  0.70261881  1
  H  H2584  1  0.58623957  0.83877765  0.63337200  1
  C  C2585  1  0.56532264  0.85816335  0.68169293  1
  C  C2586  1  0.56196866  0.78991722  0.72623806  1
  N  N2587  1  0.58122070  0.70571338  0.71187897  1
  H  H2588  1  0.56176949  0.89769146  0.67435570  1
  C  C2589  1  0.55606395  0.84059528  0.71439396  1
  N  N2590  1  0.55588866  0.77008203  0.76043534  1
  H  H2591  1  0.58415394  0.68267290  0.69007162  1
  H  H2592  1  0.56742849  0.69118173  0.73046397  1
  H  H2593  1  0.54401943  0.86756173  0.72999142  1
  H  H2594  1  0.56201042  0.73268923  0.76510600  1
  C  C2595  1  0.54677892  0.79349720  0.79129948  1
  O  O2596  1  0.53903203  0.83846527  0.79097288  1
  C  C2597  1  0.54734305  0.76203590  0.82602140  1
  N  N2598  1  0.55555742  0.71269931  0.82541444  1
  C  C2599  1  0.53891479  0.78225962  0.85873367  1
  C  C2600  1  0.55535537  0.68159626  0.85551862  1
  H  H2601  1  0.53143122  0.82177998  0.85897272  1
  C  C2602  1  0.53963719  0.75126316  0.89086769  1
  C  C2603  1  0.56130095  0.62767371  0.85069024  1
  C  C2604  1  0.54777742  0.70033802  0.88923439  1
  H  H2605  1  0.53343598  0.76646362  0.91644062  1
  N  N2606  1  0.56410126  0.61232142  0.81408602  1
  O  O2607  1  0.56339288  0.59808111  0.87814668  1
  H  H2608  1  0.54749984  0.67570311  0.91367549  1
  H  H2609  1  0.56585981  0.64063530  0.79549745  1
  C  C2610  1  0.56782625  0.56399099  0.80043601  1
  C  C2611  1  0.58688759  0.55896381  0.77157756  1
  C  C2612  1  0.55215864  0.52075582  0.81283285  1
  C  C2613  1  0.59077569  0.51170767  0.75668167  1
  N  N2614  1  0.60283152  0.60015215  0.75767309  1
  C  C2615  1  0.55658237  0.47360340  0.79801054  1
  H  H2616  1  0.53591174  0.52305388  0.83379412  1
  H  H2617  1  0.60527366  0.50784388  0.73445493  1
  C  C2618  1  0.57624626  0.46918138  0.77010744  1
  H  H2619  1  0.62271423  0.59350375  0.74239897  1
  H  H2620  1  0.60828211  0.63265676  0.77436676  1
  H  H2621  1  0.54457430  0.44055203  0.80802216  1
  H  H2622  1  0.58047722  0.43289572  0.75875526  1
  H  H2623  1  0.40591900  0.25135517  0.34861361  1
  C  C2624  1  0.41656809  0.22555850  0.33088614  1
  C  C2625  1  0.42097649  0.17483668  0.34113931  1
  C  C2626  1  0.42461294  0.24333722  0.29738163  1
  H  H2627  1  0.41376062  0.16122231  0.36662822  1
  C  C2628  1  0.43467705  0.14183712  0.31830700  1
  C  C2629  1  0.43803143  0.21008280  0.27376173  1
  N  N2630  1  0.41877948  0.29428692  0.28812049  1
  H  H2631  1  0.43823055  0.10230835  0.32564436  1
  C  C2632  1  0.44393615  0.15940465  0.28560610  1
  N  N2633  1  0.44411078  0.22991773  0.23956512  1
  H  H2634  1  0.41584605  0.31732706  0.30992860  1
  H  H2635  1  0.43257113  0.30881812  0.26953620  1
  H  H2636  1  0.45598032  0.13243842  0.27000851  1
  H  H2637  1  0.43798927  0.26731082  0.23489374  1
  C  C2638  1  0.45322163  0.20650274  0.20870030  1
  O  O2639  1  0.46096838  0.16153512  0.20902758  1
  C  C2640  1  0.45265704  0.23796397  0.17397901  1
  N  N2641  1  0.44444272  0.28730070  0.17458534  1
  C  C2642  1  0.46108468  0.21774041  0.14126574  1
  C  C2643  1  0.44464456  0.31840394  0.14448133  1
  H  H2644  1  0.46856905  0.17822014  0.14102749  1
  C  C2645  1  0.46036300  0.24873694  0.10913269  1
  C  C2646  1  0.43869912  0.37232550  0.14931087  1
  C  C2647  1  0.45222319  0.29966212  0.11076565  1
  H  H2648  1  0.46656402  0.23353632  0.08355933  1
  N  N2649  1  0.43589891  0.38767901  0.18591281  1
  O  O2650  1  0.43660723  0.40191958  0.12185293  1
  H  H2651  1  0.45249985  0.32429661  0.08632449  1
  H  H2652  1  0.43413998  0.35936428  0.20450286  1
  C  C2653  1  0.43217374  0.43600886  0.19956435  1
  C  C2654  1  0.41311222  0.44103604  0.22842220  1
  C  C2655  1  0.44784135  0.47924430  0.18716695  1
  C  C2656  1  0.40922440  0.48829258  0.24331846  1
  N  N2657  1  0.39716875  0.39984774  0.24232657  1
  C  C2658  1  0.44341749  0.52639685  0.20198961  1
  H  H2659  1  0.46408822  0.47694610  0.16620596  1
  H  H2660  1  0.39472633  0.49215611  0.26554505  1
  C  C2661  1  0.42375375  0.53081833  0.22989256  1
  H  H2662  1  0.37728560  0.40649614  0.25760127  1
  H  H2663  1  0.39171766  0.36734349  0.22563320  1
  H  H2664  1  0.45542549  0.55944786  0.19197777  1
  H  H2665  1  0.41952281  0.56710431  0.24124475  1
  H  H2666  1  0.40591901  0.99864470  0.59861359  1
  C  C2667  1  0.41656815  1.02444192  0.58088609  1
  C  C2668  1  0.42097651  1.07516313  0.59113941  1
  C  C2669  1  0.42461289  1.00666238  0.54738173  1
  H  H2670  1  0.41376055  1.08877767  0.61662813  1
  C  C2671  1  0.43467714  1.10816301  0.56830693  1
  C  C2672  1  0.43803139  1.03991724  0.52376168  1
  N  N2673  1  0.41877959  0.95571340  0.53812036  1
  H  H2674  1  0.43823046  1.14769148  0.57564431  1
  C  C2675  1  0.44393604  1.09059530  0.53560609  1
  N  N2676  1  0.44411109  1.02008231  0.48956543  1
  H  H2677  1  0.41584616  0.93267283  0.55992873  1
  H  H2678  1  0.43257122  0.94118184  0.51953623  1
  H  H2679  1  0.45598041  1.11756166  0.52000851  1
  H  H2680  1  0.43798943  0.98268894  0.48489374  1
  C  C2681  1  0.45322151  1.04349776  0.45870034  1
  O  O2682  1  0.46096800  1.08846466  0.45902732  1
  C  C2683  1  0.45265660  1.01203547  0.42397877  1
  N  N2684  1  0.44444282  0.96269942  0.42458542  1
  C  C2685  1  0.46108512  1.03225973  0.39126592  1
  C  C2686  1  0.44464462  0.93159642  0.39448170  1
  H  H2687  1  0.46856889  1.07178000  0.39102737  1
  C  C2688  1  0.46036296  1.00126309  0.35913270  1
  C  C2689  1  0.43869907  0.87767350  0.39931004  1
  C  C2690  1  0.45222272  0.95033763  0.36076528  1
  H  H2691  1  0.46656404  1.01646373  0.33355931  1
  N  N2692  1  0.43589877  0.86232255  0.43591334  1
  O  O2693  1  0.43660722  0.84808109  0.37185341  1
  H  H2694  1  0.45250010  0.92570339  0.33632460  1
  H  H2695  1  0.43414002  0.89063510  0.45450245  1
  C  C2696  1  0.43217361  0.81398999  0.44956438  1
  C  C2697  1  0.41311243  0.80896450  0.47842207  1
  C  C2698  1  0.44784137  0.77075601  0.43716712  1
  C  C2699  1  0.40922444  0.76170720  0.49331860  1
  N  N2700  1  0.39716848  0.85015164  0.49232722  1
  C  C2701  1  0.44341758  0.72360320  0.45198958  1
  H  H2702  1  0.46408825  0.77305390  0.41620589  1
  H  H2703  1  0.39472651  0.75784389  0.51554500  1
  C  C2704  1  0.42375369  0.71918145  0.47989264  1
  H  H2705  1  0.37728590  0.84350386  0.50760112  1
  H  H2706  1  0.39171784  0.88265691  0.47563302  1
  H  H2707  1  0.45542557  0.69055205  0.44197777  1
  H  H2708  1  0.41952287  0.68289578  0.49124476  1
  H  H2709  1  0.59408102  0.50135537  0.90138625  1
  C  C2710  1  0.58343179  0.47555787  0.91911379  1
  C  C2711  1  0.57902384  0.42483703  0.90886078  1
  C  C2712  1  0.57538694  0.49333808  0.95261838  1
  H  H2713  1  0.58623924  0.41122230  0.88337175  1
  C  C2714  1  0.56532284  0.39183687  0.93169303  1
  C  C2715  1  0.56196844  0.46008206  0.97623832  1
  N  N2716  1  0.58122086  0.54428622  0.96187907  1
  H  H2717  1  0.56176937  0.35230856  0.92435557  1
  C  C2718  1  0.55606377  0.40940512  0.96439376  1
  N  N2719  1  0.55588993  0.47991807  1.01043521  1
  H  H2720  1  0.58415384  0.56732719  0.94007157  1
  H  H2721  1  0.56742866  0.55881841  0.98046392  1
  H  H2722  1  0.54401974  0.38243841  0.97999160  1
  H  H2723  1  0.56201095  0.51731050  1.01510641  1
  C  C2724  1  0.54677784  0.45650320  1.04129974  1
  O  O2725  1  0.53903118  0.41153500  1.04097207  1
  C  C2726  1  0.54734226  0.48796348  1.07602082  1
  N  N2727  1  0.55555763  0.53730118  1.07541470  1
  C  C2728  1  0.53891639  0.46774060  1.10873453  1
  C  C2729  1  0.55535567  0.56840343  1.10551895  1
  H  H2730  1  0.53143044  0.42821993  1.10897229  1
  C  C2731  1  0.53963714  0.49873653  1.14086749  1
  C  C2732  1  0.56130124  0.62232580  1.10068814  1
  C  C2733  1  0.54777584  0.54966274  1.13923388  1
  H  H2734  1  0.53343600  0.48353633  1.16644057  1
  N  N2735  1  0.56410079  0.63767805  1.06408840  1
  O  O2736  1  0.56339272  0.65191965  1.12814724  1
  H  H2737  1  0.54750065  0.57429649  1.16367574  1
  H  H2738  1  0.56586017  0.60936434  1.04549717  1
  C  C2739  1  0.56782645  0.68600968  1.05043505  1
  C  C2740  1  0.58688768  0.69103610  1.02157842  1
  C  C2741  1  0.55215876  0.72924432  1.06283326  1
  C  C2742  1  0.59077568  0.73829264  1.00668155  1
  N  N2743  1  0.60283192  0.64984820  1.00767266  1
  C  C2744  1  0.55658260  0.77639673  1.04801042  1
  H  H2745  1  0.53591182  0.72694599  1.08379415  1
  H  H2746  1  0.60527357  0.74215617  0.98445496  1
  C  C2747  1  0.57624595  0.78081813  1.02010717  1
  H  H2748  1  0.62271400  0.65649598  0.99239907  1
  H  H2749  1  0.60828235  0.61734320  1.02436702  1
  H  H2750  1  0.54457445  0.80944779  1.05802226  1
  H  H2751  1  0.58047715  0.81710432  1.00875528  1
