# generated using pymatgen
data_H14C13(NO)6
_symmetry_space_group_name_H-M   'P 1'
_cell_length_a   22.59330000
_cell_length_b   23.68410000
_cell_length_c   28.43980000
_cell_angle_alpha   78.16600000
_cell_angle_beta   75.12800000
_cell_angle_gamma   66.75000000
_symmetry_Int_Tables_number   1
_chemical_formula_structural   H14C13(NO)6
_chemical_formula_sum   'H504 C468 N216 O216'
_cell_volume   13421.38469143
_cell_formula_units_Z   36
loop_
 _symmetry_equiv_pos_site_id
 _symmetry_equiv_pos_as_xyz
  1  'x, y, z'
loop_
 _atom_site_type_symbol
 _atom_site_label
 _atom_site_symmetry_multiplicity
 _atom_site_fract_x
 _atom_site_fract_y
 _atom_site_fract_z
 _atom_site_occupancy
  H  H0  1  0.43058404  0.17988485  0.01970889  1
  C  C1  1  0.39500075  0.16304428  0.01338838  1
  H  H2  1  0.34692895  0.20002579  0.01953187  1
  N  N3  1  0.39623921  0.10504797  0.04514847  1
  H  H4  1  0.40661087  0.15593695  -0.02506175  1
  C  C5  1  0.33858927  0.09326824  0.06703184  1
  C  C6  1  0.45575977  0.06040637  0.05470099  1
  N  N7  1  0.34007996  0.03869866  0.09789622  1
  O  O8  1  0.28580283  0.13198911  0.05940078  1
  C  C9  1  0.45814194  -0.00052851  0.07913279  1
  O  O10  1  0.50526081  0.07279374  0.04734125  1
  C  C11  1  0.28081328  0.02957809  0.12799899  1
  C  C12  1  0.40071941  -0.00928937  0.10042849  1
  N  N13  1  0.50773988  -0.05608592  0.08896987  1
  H  H14  1  0.27018503  -0.00393291  0.11347772  1
  H  H15  1  0.23790060  0.07260848  0.12961956  1
  H  H16  1  0.28820133  0.01201027  0.16545448  1
  N  N17  1  0.41313259  -0.06910036  0.12382752  1
  C  C18  1  0.47733769  -0.09612485  0.11645950  1
  C  C19  1  0.57859096  -0.07052203  0.07228216  1
  H  H20  1  0.50311534  -0.14380909  0.13001621  1
  H  H21  1  0.60606782  -0.11541186  0.09025458  1
  H  H22  1  0.59190277  -0.07196110  0.03262605  1
  H  H23  1  0.59263412  -0.03532325  0.08116791  1
  H  H24  1  -0.28327265  -0.08534861  -0.19486039  1
  C  C25  1  -0.30208994  -0.07170105  -0.15832183  1
  C  C26  1  -0.36784870  -0.05993481  -0.13037214  1
  C  C27  1  -0.26931205  -0.05865561  -0.13098302  1
  C  C28  1  -0.41775982  -0.07151437  -0.14703307  1
  N  N29  1  -0.37439785  -0.03932362  -0.08896279  1
  N  N30  1  -0.31460312  -0.03808986  -0.08929547  1
  C  C31  1  -0.20311196  -0.05887197  -0.14645912  1
  O  O32  1  -0.39650810  -0.11196443  -0.18083948  1
  O  O33  1  -0.47540624  -0.04565215  -0.12942052  1
  H  H34  1  -0.30347678  -0.02549227  -0.06134370  1
  O  O35  1  -0.19282635  -0.00881038  -0.13901041  1
  O  O36  1  -0.16101352  -0.10245498  -0.16674097  1
  H  H37  1  -0.43392749  -0.11363740  -0.19050860  1
  H  H38  1  -0.23252285  0.02020744  -0.12156402  1
  H  H39  1  0.24519527  -0.03352098  0.38028445  1
  C  C40  1  0.25851318  -0.02042973  0.34098939  1
  H  H41  1  0.31205193  -0.03672518  0.33017568  1
  N  N42  1  0.23003800  0.04677218  0.32919961  1
  H  H43  1  0.23996148  -0.04422018  0.32235170  1
  C  C44  1  0.21170726  0.07261905  0.28405854  1
  C  C45  1  0.22359413  0.08589538  0.36224329  1
  N  N46  1  0.17883760  0.13616812  0.27427198  1
  O  O47  1  0.22592280  0.03940877  0.25186809  1
  C  C48  1  0.18722393  0.15235074  0.35287529  1
  O  O49  1  0.24606728  0.06496734  0.39956033  1
  C  C50  1  0.16722856  0.16240898  0.22497697  1
  C  C51  1  0.16439179  0.17486902  0.31013476  1
  N  N52  1  0.16653622  0.20317282  0.37805003  1
  H  H53  1  0.21298042  0.14555415  0.19847128  1
  H  H54  1  0.13090750  0.14838275  0.21648278  1
  H  H55  1  0.14968131  0.21296062  0.22067900  1
  N  N56  1  0.12795676  0.23791641  0.30877508  1
  C  C57  1  0.12998346  0.25361349  0.34978336  1
  C  C58  1  0.17787213  0.20394721  0.42644939  1
  H  H59  1  0.10572670  0.30020528  0.36029949  1
  H  H60  1  0.14596796  0.18529534  0.45535587  1
  H  H61  1  0.22878240  0.17638889  0.42921359  1
  H  H62  1  0.16753047  0.25125051  0.43267413  1
  H  H63  1  0.20237979  -0.24850663  0.64371903  1
  C  C64  1  0.22024047  -0.21459275  0.64884870  1
  C  C65  1  0.19643746  -0.14896042  0.63186715  1
  C  C66  1  0.26716959  -0.22471778  0.67439321  1
  C  C67  1  0.14116637  -0.11869474  0.60652016  1
  N  N68  1  0.22835102  -0.12120465  0.64545825  1
  N  N69  1  0.27058655  -0.16694048  0.67141887  1
  C  C70  1  0.30403752  -0.28347892  0.70030034  1
  O  O71  1  0.10776205  -0.15427699  0.60307840  1
  O  O72  1  0.12625588  -0.06360767  0.59123861  1
  H  H73  1  0.30091460  -0.15921053  0.68848824  1
  O  O74  1  0.30000782  -0.33704661  0.69243568  1
  O  O75  1  0.33573659  -0.28112769  0.72838883  1
  H  H76  1  0.07076836  -0.12869671  0.58723279  1
  H  H77  1  0.27213599  -0.32820175  0.66886428  1
  H  H78  1  -0.12304253  -0.06753134  0.38974475  1
  C  C79  1  -0.09072118  -0.10041547  0.36392055  1
  H  H80  1  -0.11772515  -0.12766206  0.35926573  1
  N  N81  1  -0.06730900  -0.06814925  0.31743098  1
  H  H82  1  -0.04886202  -0.13237438  0.38007253  1
  C  C83  1  -0.08759484  -0.06516092  0.27413193  1
  C  C84  1  -0.02794408  -0.03480047  0.31656107  1
  N  N85  1  -0.06855187  -0.03000729  0.23154094  1
  O  O86  1  -0.12533339  -0.09037068  0.27305981  1
  C  C87  1  0.00613847  -0.01411437  0.26933261  1
  O  O88  1  -0.01864613  -0.02595976  0.35440687  1
  C  C89  1  -0.12196830  0.02319381  0.21436195  1
  C  C90  1  -0.01232017  -0.01719234  0.22827674  1
  N  N91  1  0.05532411  0.01005339  0.25228187  1
  H  H92  1  -0.10570542  0.04258670  0.17726113  1
  H  H93  1  -0.13975123  0.05947742  0.23849287  1
  H  H94  1  -0.16299201  0.00996415  0.21428306  1
  N  N95  1  0.02750394  -0.00136134  0.18606348  1
  C  C96  1  0.06790798  0.01464157  0.20165642  1
  C  C97  1  0.08168066  0.03619503  0.28081298  1
  H  H98  1  0.10544392  0.03084215  0.17790084  1
  H  H99  1  0.04741346  0.04908001  0.31517515  1
  H  H100  1  0.12861190  0.00286591  0.28885306  1
  H  H101  1  0.08912550  0.07788539  0.26021937  1
  H  H102  1  0.29729247  0.42635148  -0.06110387  1
  C  C103  1  0.25147570  0.45018355  -0.03789782  1
  C  C104  1  0.22958933  0.51292254  -0.02624974  1
  C  C105  1  0.20518638  0.42655213  -0.01265511  1
  C  C106  1  0.26355023  0.55670584  -0.04780627  1
  N  N107  1  0.17453378  0.52501444  0.00611988  1
  N  N108  1  0.15913131  0.47339253  0.01394040  1
  C  C109  1  0.20486244  0.36506417  -0.01298561  1
  O  O110  1  0.24323944  0.61057643  -0.02766087  1
  O  O111  1  0.30736485  0.54339420  -0.08396603  1
  H  H112  1  0.11971344  0.46799116  0.03910586  1
  O  O113  1  0.26038662  0.32199095  -0.03540374  1
  O  O114  1  0.15426343  0.35566188  0.00660213  1
  H  H115  1  0.26876184  0.63516184  -0.04713270  1
  H  H116  1  0.25212884  0.28364071  -0.03131209  1
  H  H117  1  0.10813098  0.24937263  -0.18282617  1
  C  C118  1  0.06664623  0.28337422  -0.16192429  1
  H  H119  1  0.08269842  0.29153316  -0.13164421  1
  N  N120  1  0.01276342  0.26027858  -0.14350272  1
  H  H121  1  0.05245549  0.32646102  -0.18620955  1
  C  C122  1  0.02052505  0.20889833  -0.10806632  1
  C  C123  1  -0.04343447  0.28452765  -0.16383724  1
  N  N124  1  -0.01690916  0.17187052  -0.10114946  1
  O  O125  1  0.05909975  0.19843147  -0.08134602  1
  C  C126  1  -0.08489588  0.24794252  -0.15481940  1
  O  O127  1  -0.05753636  0.33438055  -0.18978533  1
  C  C128  1  -0.01182892  0.11954888  -0.06248826  1
  C  C129  1  -0.06822769  0.19179104  -0.12677227  1
  N  N130  1  -0.14122047  0.25533175  -0.16951667  1
  H  H131  1  -0.05602834  0.13052560  -0.03378307  1
  H  H132  1  0.03042575  0.10749192  -0.04538446  1
  H  H133  1  -0.00635154  0.07860851  -0.07768549  1
  N  N134  1  -0.10908097  0.16118662  -0.12740777  1
  C  C135  1  -0.15097260  0.19966469  -0.15434703  1
  C  C136  1  -0.18616974  0.31318749  -0.19109232  1
  H  H137  1  -0.18866590  0.18901968  -0.16375997  1
  H  H138  1  -0.15964653  0.33302038  -0.22341877  1
  H  H139  1  -0.20923716  0.34706515  -0.16466019  1
  H  H140  1  -0.22473012  0.30474529  -0.20195317  1
  H  H141  1  -0.03216811  0.46708985  0.52328735  1
  C  C142  1  -0.00649558  0.45763990  0.55291668  1
  C  C143  1  0.05976442  0.41518686  0.55404197  1
  C  C144  1  -0.02699288  0.48770723  0.59315949  1
  C  C145  1  0.10327075  0.38313394  0.51197910  1
  N  N146  1  0.07629151  0.41530305  0.59514592  1
  N  N147  1  0.02295071  0.45845256  0.61940195  1
  C  C148  1  -0.08738823  0.54060273  0.60490495  1
  O  O149  1  0.08009674  0.39550026  0.46959034  1
  O  O150  1  0.15892005  0.34853314  0.51643829  1
  H  H151  1  0.02216969  0.47260635  0.65126041  1
  O  O152  1  -0.12207235  0.54156828  0.65194657  1
  O  O153  1  -0.10200984  0.58245759  0.57172518  1
  H  H154  1  0.11416007  0.37178406  0.44487749  1
  H  H155  1  -0.10135493  0.50392533  0.67218538  1
  H  H156  1  0.09146497  0.21552198  0.57743961  1
  C  C157  1  0.06938494  0.25765983  0.55403354  1
  H  H158  1  0.10679723  0.26095411  0.52161385  1
  N  N159  1  0.01216917  0.25478024  0.54123559  1
  H  H160  1  0.05522424  0.29719152  0.57401623  1
  C  C161  1  -0.03333606  0.23689548  0.57811241  1
  C  C162  1  0.00591567  0.26232957  0.49260178  1
  N  N163  1  -0.08221931  0.22310223  0.56682542  1
  O  O164  1  -0.03011725  0.23277845  0.62111602  1
  C  C165  1  -0.03669176  0.23604334  0.48130938  1
  O  O166  1  0.03594465  0.28896546  0.45966069  1
  C  C167  1  -0.13606624  0.21536971  0.60485290  1
  C  C168  1  -0.07909088  0.21733316  0.51840070  1
  N  N169  1  -0.04268870  0.21914799  0.43976455  1
  H  H170  1  -0.11935753  0.17159884  0.62805334  1
  H  H171  1  -0.17626650  0.21689734  0.58955132  1
  H  H172  1  -0.15510149  0.25345647  0.62703661  1
  N  N173  1  -0.11242730  0.19033644  0.50109434  1
  C  C174  1  -0.08972581  0.19190891  0.45381827  1
  C  C175  1  0.00274953  0.21790990  0.39276044  1
  H  H176  1  -0.10512082  0.17311531  0.42923355  1
  H  H177  1  0.05199612  0.18701859  0.39748041  1
  H  H178  1  0.00383868  0.26413942  0.37935890  1
  H  H179  1  -0.01140861  0.20144907  0.36568818  1
  H  H180  1  -0.26723537  0.38992017  0.37400369  1
  C  C181  1  -0.23408660  0.39954647  0.38977292  1
  C  C182  1  -0.25247485  0.45026207  0.41728590  1
  C  C183  1  -0.16846652  0.36965648  0.38615277  1
  C  C184  1  -0.31844181  0.49737299  0.42226920  1
  N  N185  1  -0.20147072  0.44970184  0.43173360  1
  N  N186  1  -0.14978070  0.40136637  0.41205457  1
  C  C187  1  -0.12716791  0.31886492  0.35735897  1
  O  O188  1  -0.35076038  0.50785209  0.38479076  1
  O  O189  1  -0.34088972  0.52559358  0.45828069  1
  H  H190  1  -0.10227925  0.39039382  0.41502310  1
  O  O191  1  -0.07296584  0.32452574  0.32564715  1
  O  O192  1  -0.14236110  0.27345623  0.36360022  1
  H  H193  1  -0.39276648  0.54217195  0.39138231  1
  H  H194  1  -0.05137091  0.28847321  0.30798272  1
  H  H195  1  0.19836550  0.95515802  0.06554263  1
  C  C196  1  0.16713633  0.94783992  0.10081645  1
  H  H197  1  0.11836120  0.98345296  0.10174261  1
  N  N198  1  0.16263399  0.88662369  0.10795033  1
  H  H199  1  0.18861980  0.95321777  0.12917600  1
  C  C200  1  0.15586768  0.85366379  0.15455668  1
  C  C201  1  0.15967416  0.86238466  0.06831172  1
  N  N202  1  0.15660261  0.79340225  0.16098154  1
  O  O203  1  0.14717560  0.87812785  0.19094771  1
  C  C204  1  0.17039864  0.79668581  0.07373557  1
  O  O205  1  0.15110800  0.89431225  0.02903442  1
  C  C206  1  0.13242890  0.76643169  0.20978151  1
  C  C207  1  0.17092111  0.76370828  0.11922579  1
  N  N208  1  0.18112672  0.75536134  0.04179545  1
  H  H209  1  0.16457199  0.75960952  0.23496355  1
  H  H210  1  0.08344038  0.79704008  0.22520932  1
  H  H211  1  0.12965031  0.72182162  0.20838616  1
  N  N212  1  0.18584297  0.70166660  0.11585054  1
  C  C213  1  0.19297124  0.69780993  0.06924698  1
  C  C214  1  0.16876462  0.77146475  -0.00840690  1
  H  H215  1  0.20513597  0.65501697  0.05440333  1
  H  H216  1  0.11733335  0.80084325  -0.00822429  1
  H  H217  1  0.17958045  0.72993438  -0.02508910  1
  H  H218  1  0.19936301  0.79666256  -0.03100166  1
  H  H219  1  -0.42399853  0.60821507  -0.24218052  1
  C  C220  1  -0.38362739  0.58672704  -0.27057834  1
  C  C221  1  -0.35813704  0.61871593  -0.31502224  1
  C  C222  1  -0.34697970  0.52567279  -0.27273531  1
  C  C223  1  -0.37852472  0.68541665  -0.32526948  1
  N  N224  1  -0.31079268  0.57992953  -0.34319968  1
  N  N225  1  -0.30345970  0.52366120  -0.31714998  1
  C  C226  1  -0.35224242  0.47194005  -0.23846409  1
  O  O227  1  -0.35660221  0.71351310  -0.29995738  1
  O  O228  1  -0.41035591  0.71204239  -0.35739668  1
  H  H229  1  -0.26905959  0.48316931  -0.32906856  1
  O  O230  1  -0.40867675  0.47827584  -0.20418245  1
  O  O231  1  -0.30567007  0.42319249  -0.24367114  1
  H  H232  1  -0.32913745  0.68262200  -0.27826918  1
  H  H233  1  -0.43594910  0.52172609  -0.20243240  1
  H  H234  1  0.18453264  0.82268194  0.27662358  1
  C  C235  1  0.15208146  0.85756096  0.30093843  1
  H  H236  1  0.15726054  0.90163501  0.28437199  1
  N  N237  1  0.16970710  0.84040213  0.34892385  1
  H  H238  1  0.10138554  0.86165560  0.30390643  1
  C  C239  1  0.14100860  0.89736868  0.38833833  1
  C  C240  1  0.21567600  0.76274184  0.36541350  1
  N  N241  1  0.15438042  0.88082355  0.44821663  1
  O  O242  1  0.10767195  0.94985581  0.37460076  1
  C  C243  1  0.23702626  0.73997252  0.43708794  1
  O  O244  1  0.22703832  0.72311838  0.33972015  1
  C  C245  1  0.10730437  0.92319217  0.48220584  1
  C  C246  1  0.20296866  0.80096064  0.47440813  1
  N  N247  1  0.27329960  0.69405008  0.46749164  1
  H  H248  1  0.05918092  0.94296694  0.47189152  1
  H  H249  1  0.12351513  0.96050134  0.48303043  1
  H  H250  1  0.10225988  0.89828296  0.51865637  1
  N  N251  1  0.22660035  0.77472779  0.51729270  1
  C  C252  1  0.26597882  0.71664553  0.51151862  1
  C  C253  1  0.31952408  0.63421276  0.45240970  1
  H  H254  1  0.29206002  0.68725295  0.54002384  1
  H  H255  1  0.34880482  0.60890102  0.48040579  1
  H  H256  1  0.35272404  0.64083941  0.41802809  1
  H  H257  1  0.29320221  0.60674393  0.44702763  1
  H  H258  1  -0.16787556  0.54571426  0.42302789  1
  C  C259  1  -0.21137072  0.57292465  0.44676562  1
  C  C260  1  -0.22533633  0.56437264  0.49973980  1
  C  C261  1  -0.26633525  0.61647679  0.43300146  1
  C  C262  1  -0.18269374  0.51559831  0.52979091  1
  N  N263  1  -0.28381676  0.60324317  0.51691427  1
  N  N264  1  -0.30817576  0.63607633  0.47647691  1
  C  C265  1  -0.27903685  0.63249077  0.38326136  1
  O  O266  1  -0.19774671  0.51749181  0.57926106  1
  O  O267  1  -0.13648070  0.47469733  0.50902743  1
  H  H268  1  -0.35310900  0.67082313  0.47810325  1
  O  O269  1  -0.22665875  0.61723138  0.34546685  1
  O  O270  1  -0.33632040  0.65609748  0.37843798  1
  H  H271  1  -0.23611200  0.55401644  0.58798113  1
  H  H272  1  -0.24191347  0.62596091  0.31480379  1
  H  H273  1  -0.18347126  0.48365935  0.31006443  1
  C  C274  1  -0.13362980  0.48343059  0.29569887  1
  H  H275  1  -0.09896606  0.43925151  0.30871785  1
  N  N276  1  -0.12071939  0.49250847  0.24187943  1
  H  H277  1  -0.12796498  0.51902517  0.31132747  1
  C  C278  1  -0.11747193  0.54851282  0.21564333  1
  C  C279  1  -0.11255353  0.44451812  0.21637584  1
  N  N280  1  -0.10253491  0.55581848  0.16439392  1
  O  O281  1  -0.12929445  0.59245036  0.23758524  1
  C  C282  1  -0.09563017  0.45169714  0.16292686  1
  O  O283  1  -0.11999324  0.39655179  0.23761378  1
  C  C284  1  -0.09585516  0.61225201  0.13514758  1
  C  C285  1  -0.09129414  0.50651215  0.13920853  1
  N  N286  1  -0.08119258  0.41518371  0.12614555  1
  H  H287  1  -0.12960846  0.63011111  0.10966281  1
  H  H288  1  -0.10595919  0.64870885  0.15736021  1
  H  H289  1  -0.04597826  0.60201905  0.11379865  1
  N  N290  1  -0.07487060  0.50522650  0.08895640  1
  C  C291  1  -0.06845091  0.44998787  0.08209654  1
  C  C292  1  -0.07869808  0.35162974  0.13114957  1
  H  H293  1  -0.05505903  0.43370717  0.04642614  1
  H  H294  1  -0.04344439  0.32811388  0.10069243  1
  H  H295  1  -0.06354907  0.32590801  0.16532171  1
  H  H296  1  -0.12674463  0.35160874  0.13046196  1
  H  H297  1  0.87299539  -0.03007977  0.14483423  1
  C  C298  1  0.86010992  -0.00503918  0.11045219  1
  C  C299  1  0.79421787  0.02670654  0.10069117  1
  C  C300  1  0.90217112  0.00166369  0.06782372  1
  C  C301  1  0.73327696  0.03369631  0.13684074  1
  N  N302  1  0.79695539  0.04995183  0.05457450  1
  N  N303  1  0.86200426  0.03440300  0.03445455  1
  C  C304  1  0.97396148  -0.02032828  0.05814879  1
  O  O305  1  0.73712294  0.01998301  0.18515518  1
  O  O306  1  0.68184699  0.05174347  0.12211237  1
  H  H307  1  0.87956745  0.04402203  -0.00186482  1
  O  O308  1  1.00572324  -0.04424184  0.09681319  1
  O  O309  1  1.00170491  -0.01483963  0.01539396  1
  H  H310  1  0.69254342  0.03165337  0.20428272  1
  H  H311  1  0.97480218  -0.04068002  0.12788269  1
  H  H312  1  0.19428823  -0.26868576  -0.19117716  1
  C  C313  1  0.15149058  -0.24101001  -0.20782339  1
  H  H314  1  0.10989611  -0.25418620  -0.18777318  1
  N  N315  1  0.13468788  -0.17481180  -0.20663622  1
  H  H316  1  0.16357222  -0.25263856  -0.24524495  1
  C  C317  1  0.10755772  -0.13117608  -0.24401014  1
  C  C318  1  0.13945320  -0.15424908  -0.16556789  1
  N  N319  1  0.09693479  -0.06855627  -0.24573676  1
  O  O320  1  0.09133269  -0.14798840  -0.27524216  1
  C  C321  1  0.12100026  -0.08777382  -0.16467789  1
  O  O322  1  0.15669300  -0.19073972  -0.12981530  1
  C  C323  1  0.07687662  -0.02466733  -0.28831216  1
  C  C324  1  0.10178915  -0.04760609  -0.20466080  1
  N  N325  1  0.11416650  -0.05098127  -0.13008560  1
  H  H326  1  0.11803513  -0.03178431  -0.31940071  1
  H  H327  1  0.03644924  -0.03055098  -0.29854641  1
  H  H328  1  0.06006324  0.02328101  -0.28100602  1
  N  N329  1  0.08557472  0.01301718  -0.19638349  1
  C  C330  1  0.09352626  0.00970536  -0.15177742  1
  C  C331  1  0.11281075  -0.07035125  -0.07757471  1
  H  H332  1  0.08438610  0.04968822  -0.13413205  1
  H  H333  1  0.11308397  -0.03380760  -0.05970918  1
  H  H334  1  0.06848596  -0.08076097  -0.06039719  1
  H  H335  1  0.15550490  -0.11165378  -0.07172792  1
  H  H336  1  0.65030821  0.06903687  0.63792840  1
  C  C337  1  0.64434545  0.03484265  0.66847799  1
  C  C338  1  0.58376643  0.03690817  0.70227327  1
  C  C339  1  0.69204438  -0.01776956  0.68283761  1
  C  C340  1  0.52057679  0.08684295  0.69880343  1
  N  N341  1  0.59455632  -0.01067217  0.73630515  1
  N  N342  1  0.66022598  -0.04336497  0.72487213  1
  C  C343  1  0.76143960  -0.04110168  0.65905333  1
  O  O344  1  0.51917229  0.13415757  0.66157600  1
  O  O345  1  0.47312881  0.08516088  0.73072521  1
  H  H346  1  0.68307525  -0.08507020  0.74348622  1
  O  O347  1  0.80532892  -0.08561302  0.68482696  1
  O  O348  1  0.77620657  -0.02034644  0.61658461  1
  H  H349  1  0.56273228  0.12801831  0.64196413  1
  H  H350  1  0.84879453  -0.09652503  0.66412771  1
  H  H351  1  0.30496087  -0.17367523  0.55430550  1
  C  C352  1  0.33690980  -0.14869832  0.53354787  1
  H  H353  1  0.31535460  -0.10109400  0.54216948  1
  N  N354  1  0.34377865  -0.14915484  0.48122545  1
  H  H355  1  0.38383130  -0.17113904  0.54535394  1
  C  C356  1  0.40330426  -0.16059789  0.44852921  1
  C  C357  1  0.28756030  -0.13050218  0.46209149  1
  N  N358  1  0.40700068  -0.16864030  0.40069846  1
  O  O359  1  0.45224812  -0.16333762  0.46147721  1
  C  C360  1  0.28911798  -0.15431375  0.41654577  1
  O  O361  1  0.24054423  -0.08872742  0.48128479  1
  C  C362  1  0.47171166  -0.19793663  0.37128879  1
  C  C363  1  0.35056579  -0.16725403  0.38748278  1
  N  N364  1  0.24499896  -0.17026562  0.39429669  1
  H  H365  1  0.50347094  -0.17283791  0.37011699  1
  H  H366  1  0.46935979  -0.19861093  0.33361452  1
  H  H367  1  0.49435418  -0.24569229  0.38703754  1
  N  N368  1  0.35005115  -0.17583372  0.34238173  1
  C  C369  1  0.29081712  -0.17310194  0.34645651  1
  C  C370  1  0.13203750  -0.19577779  0.42759922  1
  H  H371  1  0.27932039  -0.17608657  0.31252103  1
  H  H372  1  0.09084896  -0.17430362  0.40758801  1
  H  H373  1  0.10175919  -0.18448731  0.46409674  1
  H  H374  1  0.13448971  -0.24405360  0.43079975  1
  H  H375  1  0.09410141  0.46328081  0.21089580  1
  C  C376  1  0.07265277  0.42788448  0.21984745  1
  C  C377  1  0.06857002  0.39153784  0.18629627  1
  C  C378  1  0.04635656  0.40708136  0.26540625  1
  C  C379  1  0.09145057  0.39814267  0.13314348  1
  N  N380  1  0.04244783  0.35070164  0.21044711  1
  N  N381  1  0.02851631  0.36056883  0.25815248  1
  C  C382  1  0.03788092  0.42842504  0.31231771  1
  O  O383  1  0.08090975  0.45627094  0.10872420  1
  O  O384  1  0.11868028  0.35078889  0.11327518  1
  H  H385  1  0.00559203  0.33719476  0.28614595  1
  O  O386  1  0.00402273  0.40455060  0.35320070  1
  O  O387  1  0.06165743  0.46667610  0.31237127  1
  H  H388  1  0.05905185  0.48740318  0.13140953  1
  H  H389  1  -0.00194489  0.42642011  0.38063245  1
  H  H390  1  0.45342196  0.58639474  0.03199119  1
  C  C391  1  0.50272349  0.55558686  0.03690438  1
  H  H392  1  0.53706999  0.57904295  0.01977525  1
  N  N393  1  0.52292108  0.49818258  0.01587068  1
  H  H394  1  0.50246353  0.54608963  0.07606181  1
  C  C395  1  0.56990369  0.44516358  0.03447785  1
  C  C396  1  0.49483582  0.49514371  -0.02150260  1
  N  N397  1  0.58710983  0.38874669  0.01727050  1
  O  O398  1  0.59524510  0.44773334  0.06707864  1
  C  C399  1  0.51653008  0.43697297  -0.04174043  1
  O  O400  1  0.44851666  0.53861759  -0.03504199  1
  C  C401  1  0.63236513  0.33298368  0.03932511  1
  C  C402  1  0.55937467  0.38563632  -0.02035441  1
  N  N403  1  0.50253257  0.41720974  -0.07872221  1
  H  H404  1  0.68101186  0.33552971  0.03315817  1
  H  H405  1  0.61365623  0.32717597  0.07869512  1
  H  H406  1  0.63786321  0.29205075  0.02426588  1
  N  N407  1  0.56866666  0.33370865  -0.04048923  1
  C  C408  1  0.53462943  0.35368220  -0.07524403  1
  C  C409  1  0.46143354  0.45461477  -0.11448373  1
  H  H410  1  0.53220318  0.32340170  -0.09795752  1
  H  H411  1  0.45367012  0.50354843  -0.11679456  1
  H  H412  1  0.48513222  0.43976724  -0.15082128  1
  H  H413  1  0.41379924  0.44924053  -0.10377638  1
  H  H414  1  0.09305349  0.44652353  -0.23693299  1
  C  C415  1  0.05162354  0.44879796  -0.20703406  1
  C  C416  1  0.05464575  0.42534922  -0.15592068  1
  C  C417  1  -0.01311234  0.47591618  -0.20938453  1
  C  C418  1  0.11413955  0.39232962  -0.13540172  1
  N  N419  1  -0.00472468  0.43678676  -0.12948752  1
  N  N420  1  -0.04544180  0.46554143  -0.16197657  1
  C  C421  1  -0.04353273  0.50958221  -0.25164209  1
  O  O422  1  0.10686748  0.37143598  -0.08646577  1
  O  O423  1  0.16711489  0.38384629  -0.16338656  1
  H  H424  1  -0.09555004  0.48033407  -0.15225300  1
  O  O425  1  -0.00513478  0.52544139  -0.29388111  1
  O  O426  1  -0.10271904  0.52241702  -0.24630576  1
  H  H427  1  0.06064213  0.38099228  -0.07164507  1
  H  H428  1  0.03884741  0.51592189  -0.28890967  1
  H  H429  1  0.54762008  0.47624513  0.35554170  1
  C  C430  1  0.54783102  0.43205503  0.37655260  1
  H  H431  1  0.52474653  0.41143635  0.35910586  1
  N  N432  1  0.51329556  0.44118151  0.42726406  1
  H  H433  1  0.59889324  0.40080759  0.37470648  1
  C  C434  1  0.44449437  0.46178876  0.43982546  1
  C  C435  1  0.54902596  0.43110075  0.46350119  1
  N  N436  1  0.41080328  0.47489927  0.48728691  1
  O  O437  1  0.41268864  0.46886960  0.40874281  1
  C  C438  1  0.51373253  0.45228362  0.51113049  1
  O  O439  1  0.60905734  0.40573934  0.45604644  1
  C  C440  1  0.33980961  0.48959570  0.50336675  1
  C  C441  1  0.44670296  0.47283360  0.52125940  1
  N  N442  1  0.53092923  0.46005382  0.55199576  1
  H  H443  1  0.31530423  0.49682212  0.47303734  1
  H  H444  1  0.33001964  0.45201526  0.52935960  1
  H  H445  1  0.31714316  0.53172071  0.52143905  1
  N  N446  1  0.42132119  0.49226882  0.56738328  1
  C  C447  1  0.47265473  0.48433940  0.58471745  1
  C  C448  1  0.59677891  0.45093594  0.55796805  1
  H  H449  1  0.46889882  0.49598081  0.62038645  1
  H  H450  1  0.60017552  0.49551305  0.55885146  1
  H  H451  1  0.63453261  0.42905800  0.52781379  1
  H  H452  1  0.60705086  0.42106198  0.59192539  1
  H  H453  1  -0.02337575  0.06332284  0.53340988  1
  C  C454  1  0.02160217  0.07264952  0.52302884  1
  C  C455  1  0.05961221  0.07785017  0.47379192  1
  C  C456  1  0.05252517  0.08384203  0.55327323  1
  C  C457  1  0.04525321  0.06962994  0.42872586  1
  N  N458  1  0.11047661  0.09108258  0.47459791  1
  N  N459  1  0.10595199  0.09520774  0.52251875  1
  C  C460  1  0.03351875  0.08658734  0.60622308  1
  O  O461  1  0.08811931  0.07515783  0.38597212  1
  O  O462  1  -0.00445201  0.05930770  0.43153225  1
  H  H463  1  0.14000335  0.10339486  0.53510146  1
  O  O464  1  0.06582834  0.11022621  0.62640434  1
  O  O465  1  -0.01030039  0.06849877  0.62957684  1
  H  H466  1  0.12554030  0.07957108  0.39349516  1
  H  H467  1  0.04660800  0.11214009  0.66098595  1
  H  H468  1  0.31527001  0.46214222  0.37267189  1
  C  C469  1  0.26929393  0.50173791  0.37909410  1
  H  H470  1  0.27059540  0.52541845  0.40774919  1
  N  N471  1  0.25995068  0.54376812  0.33376770  1
  H  H472  1  0.22913915  0.48456710  0.39292358  1
  C  C473  1  0.22690802  0.53632185  0.30140760  1
  C  C474  1  0.28898480  0.58840816  0.32076859  1
  N  N475  1  0.22370817  0.57157645  0.25573662  1
  O  O476  1  0.19880224  0.49924977  0.31346975  1
  C  C477  1  0.28641345  0.62519861  0.27261463  1
  O  O478  1  0.31876727  0.59556135  0.34821047  1
  C  C479  1  0.17927748  0.57432616  0.22522160  1
  C  C480  1  0.25503211  0.61423886  0.24239090  1
  N  N481  1  0.30810580  0.67194117  0.24599615  1
  H  H482  1  0.16615146  0.53311106  0.23293359  1
  H  H483  1  0.13456356  0.61488491  0.23183647  1
  H  H484  1  0.20189950  0.57841158  0.18637311  1
  N  N485  1  0.25674134  0.65155922  0.19841466  1
  C  C486  1  0.28608452  0.68738795  0.20250188  1
  C  C487  1  0.34199019  0.70501117  0.26055555  1
  H  H488  1  0.29200005  0.72456606  0.17465476  1
  H  H489  1  0.35463330  0.68549185  0.29648516  1
  H  H490  1  0.31021471  0.75347354  0.26250914  1
  H  H491  1  0.38670195  0.70270550  0.23352390  1
  H  H492  1  0.33837260  0.75958804  0.06858178  1
  C  C493  1  0.37946127  0.75021908  0.08562673  1
  C  C494  1  0.41263264  0.79193680  0.08384402  1
  C  C495  1  0.41076847  0.69651131  0.11175730  1
  C  C496  1  0.39371764  0.85387664  0.05674057  1
  N  N497  1  0.45957375  0.76603704  0.10951962  1
  N  N498  1  0.45751375  0.70857200  0.12755817  1
  C  C499  1  0.39720425  0.63918206  0.11993235  1
  O  O500  1  0.32821213  0.89036777  0.06458850  1
  O  O501  1  0.43702030  0.86957283  0.02864102  1
  H  H502  1  0.48911483  0.67677411  0.14857080  1
  O  O503  1  0.43070623  0.59041931  0.14966195  1
  O  O504  1  0.35669600  0.63781842  0.09917634  1
  H  H505  1  0.30364327  0.86977342  0.09054907  1
  H  H506  1  0.41921464  0.55506568  0.14861209  1
  H  H507  1  0.00668934  0.50512619  -0.06813517  1
  C  C508  1  0.02262430  0.50679609  -0.03544426  1
  H  H509  1  -0.01654445  0.50550402  -0.00411497  1
  N  N510  1  0.03815464  0.56270146  -0.04102536  1
  H  H511  1  0.06557830  0.46525287  -0.03000612  1
  C  C512  1  0.09217296  0.56852343  -0.07595521  1
  C  C513  1  -0.00008403  0.61056635  -0.01222240  1
  N  N514  1  0.10830188  0.62130158  -0.08285427  1
  O  O515  1  0.12531041  0.52636650  -0.10117845  1
  C  C516  1  0.01393649  0.66730064  -0.02170228  1
  O  O517  1  -0.04434855  0.60591532  0.02175854  1
  C  C518  1  0.16480512  0.62785159  -0.11906678  1
  C  C519  1  0.06745456  0.67065141  -0.05600307  1
  N  N520  1  -0.01387726  0.72300113  -0.00221430  1
  H  H521  1  0.18475286  0.65722748  -0.10797849  1
  H  H522  1  0.15078661  0.64835272  -0.15429432  1
  H  H523  1  0.20401743  0.58290383  -0.12388636  1
  N  N524  1  0.07420710  0.72696886  -0.05861232  1
  C  C525  1  0.02491597  0.75734812  -0.02627563  1
  C  C526  1  -0.07133453  0.74159740  0.03760065  1
  H  H527  1  0.01585707  0.80372721  -0.01927099  1
  H  H528  1  -0.07976789  0.78738440  0.04594896  1
  H  H529  1  -0.06337296  0.70901753  0.07070555  1
  H  H530  1  -0.11542550  0.74355739  0.02727642  1
  H  H531  1  0.53140588  0.81561766  0.74943498  1
  C  C532  1  0.53138227  0.83132519  0.71100531  1
  C  C533  1  0.58121172  0.84997980  0.67607094  1
  C  C534  1  0.48805735  0.83247594  0.68561260  1
  C  C535  1  0.64139485  0.84374775  0.69015108  1
  N  N536  1  0.56687973  0.86559738  0.63210279  1
  N  N537  1  0.50984412  0.85545515  0.63817822  1
  C  C538  1  0.43371069  0.81009985  0.70463743  1
  O  O539  1  0.64595502  0.82200315  0.73788882  1
  O  O540  1  0.68476590  0.85596255  0.65921184  1
  H  H541  1  0.48690870  0.86091991  0.60999480  1
  O  O542  1  0.42328174  0.78612277  0.75282687  1
  O  O543  1  0.40141161  0.81255898  0.67540225  1
  H  H544  1  0.68736502  0.82133596  0.74320570  1
  H  H545  1  0.38657979  0.77206135  0.75900916  1
  H  H546  1  0.12955075  0.49141237  0.51419278  1
  C  C547  1  0.13979767  0.51797645  0.47896138  1
  H  H548  1  0.19028858  0.51579638  0.47328467  1
  N  N549  1  0.09203492  0.58165555  0.47875605  1
  H  H550  1  0.13685791  0.49570085  0.44995293  1
  C  C551  1  0.10948182  0.63166115  0.47997461  1
  C  C552  1  0.02675701  0.59278366  0.47844910  1
  N  N553  1  0.06168493  0.69053568  0.48493909  1
  O  O554  1  0.16670753  0.62459451  0.47820203  1
  C  C555  1  -0.01992738  0.65624367  0.47326253  1
  O  O556  1  0.01007676  0.55034879  0.47649049  1
  C  C557  1  0.06444285  0.72503482  0.52064843  1
  C  C558  1  -0.00004805  0.70282980  0.47524560  1
  N  N559  1  -0.08287009  0.68524654  0.46368761  1
  H  H560  1  0.03043330  0.77280087  0.51726318  1
  H  H561  1  0.05120337  0.70328592  0.55749980  1
  H  H562  1  0.11378665  0.72557606  0.51567898  1
  N  N563  1  -0.04727271  0.76023887  0.46525814  1
  C  C564  1  -0.09587024  0.74835083  0.45774955  1
  C  C565  1  -0.12924298  0.65622924  0.46284677  1
  H  H566  1  -0.14085931  0.78387335  0.44854869  1
  H  H567  1  -0.16690025  0.66249902  0.49615921  1
  H  H568  1  -0.15272768  0.67648916  0.43108150  1
  H  H569  1  -0.10457917  0.60656112  0.46112773  1
  H  H570  1  0.44350248  0.56847349  0.34802044  1
  C  C571  1  0.46301392  0.57723431  0.30933237  1
  C  C572  1  0.48892310  0.62532210  0.28596711  1
  C  C573  1  0.46292038  0.54925929  0.27216703  1
  C  C574  1  0.48965447  0.67400949  0.30946200  1
  N  N575  1  0.50526215  0.62478431  0.23830210  1
  N  N576  1  0.49060066  0.57798711  0.22986974  1
  C  C577  1  0.43259050  0.50462680  0.27417540  1
  O  O578  1  0.53526999  0.70073604  0.28758506  1
  O  O579  1  0.44785962  0.68970691  0.34619945  1
  H  H580  1  0.49421278  0.56827215  0.19562526  1
  O  O581  1  0.39942625  0.51338704  0.23781846  1
  O  O582  1  0.43746451  0.46298479  0.30781228  1
  H  H583  1  0.56229148  0.68048555  0.25889249  1
  H  H584  1  0.39949836  0.55136378  0.21677792  1
  H  H585  1  1.03244002  -0.18522483  -0.13214557  1
  C  C586  1  0.98280362  -0.18144124  -0.13220009  1
  H  H587  1  0.98195476  -0.22813814  -0.12370057  1
  N  N588  1  0.93546405  -0.14076315  -0.09625199  1
  H  H589  1  0.97240795  -0.16292870  -0.16895545  1
  C  C590  1  0.93700033  -0.08205170  -0.09805925  1
  C  C591  1  0.88372892  -0.15607002  -0.06523296  1
  N  N592  1  0.88874020  -0.03827799  -0.06898564  1
  O  O593  1  0.98030943  -0.06759217  -0.12739482  1
  C  C594  1  0.83161164  -0.10976847  -0.03558562  1
  O  O595  1  0.87859254  -0.20556956  -0.06563834  1
  C  C596  1  0.88553804  0.02583455  -0.07993868  1
  C  C597  1  0.83497243  -0.05251230  -0.03965758  1
  N  N598  1  0.77299127  -0.10641899  -0.00326137  1
  H  H599  1  0.92485614  0.03037585  -0.06711480  1
  H  H600  1  0.89058629  0.04049984  -0.11940640  1
  H  H601  1  0.83869374  0.05728357  -0.06242619  1
  N  N602  1  0.77804529  -0.01291827  -0.01368674  1
  C  C603  1  0.74240209  -0.04624831  0.00843108  1
  C  C604  1  0.75066767  -0.15753390  0.02039633  1
  H  H605  1  0.69534634  -0.02864997  0.03294588  1
  H  H606  1  0.70006387  -0.14616519  0.01718958  1
  H  H607  1  0.78116184  -0.20000302  0.00384150  1
  H  H608  1  0.75328137  -0.16641449  0.05920175  1
  H  H609  1  0.26645425  -0.03884746  -0.12344553  1
  C  C610  1  0.27484810  -0.08716966  -0.12345134  1
  C  C611  1  0.28053426  -0.11697944  -0.16491667  1
  C  C612  1  0.28468139  -0.13231988  -0.08520365  1
  C  C613  1  0.27561209  -0.08434273  -0.21395066  1
  N  N614  1  0.29237262  -0.17643213  -0.15254831  1
  N  N615  1  0.29388309  -0.18548591  -0.10400377  1
  C  C616  1  0.28940381  -0.12661743  -0.03616677  1
  O  O617  1  0.27541160  -0.02554173  -0.22192128  1
  O  O618  1  0.27244084  -0.11098636  -0.24526940  1
  H  H619  1  0.30352777  -0.22783424  -0.08369009  1
  O  O620  1  0.28289098  -0.07022660  -0.02669665  1
  O  O621  1  0.30103896  -0.17320753  -0.00673700  1
  H  H622  1  0.27129985  -0.00895800  -0.25560324  1
  H  H623  1  0.29401869  -0.07451605  0.00517216  1
  H  H624  1  0.74822579  0.27620127  0.67034101  1
  C  C625  1  0.75170993  0.27099846  0.70868923  1
  H  H626  1  0.70476453  0.27061146  0.73101692  1
  N  N627  1  0.80426863  0.21323351  0.72104456  1
  H  H628  1  0.75873054  0.31155634  0.71541389  1
  C  C629  1  0.86542051  0.21202372  0.72457851  1
  C  C630  1  0.79389364  0.15782229  0.72693524  1
  N  N631  1  0.91272106  0.15761477  0.74151678  1
  O  O632  1  0.87782301  0.25946545  0.71224855  1
  C  C633  1  0.84298083  0.10101065  0.74469662  1
  O  O634  1  0.74450642  0.15638316  0.71744285  1
  C  C635  1  0.97625630  0.15591106  0.74685479  1
  C  C636  1  0.89918148  0.10294859  0.75275569  1
  N  N637  1  0.84842728  0.03983717  0.75592627  1
  H  H638  1  0.99091326  0.12556574  0.77973771  1
  H  H639  1  1.01389751  0.13880023  0.71502642  1
  H  H640  1  0.97457249  0.20167605  0.75038179  1
  N  N641  1  0.93793455  0.04513099  0.77163646  1
  C  C642  1  0.90670739  0.00827356  0.77306520  1
  C  C643  1  0.80442492  0.01245649  0.74745602  1
  H  H644  1  0.92454499  -0.04083641  0.78596577  1
  H  H645  1  0.78770253  0.03273203  0.71297929  1
  H  H646  1  0.76102177  0.01999793  0.77655918  1
  H  H647  1  0.83022658  -0.03726646  0.74610178  1
  H  H648  1  0.57194072  -0.31404333  0.45642317  1
  C  C649  1  0.52714171  -0.31498099  0.48122553  1
  C  C650  1  0.48652296  -0.34738348  0.47719499  1
  C  C651  1  0.49854408  -0.28639747  0.52232691  1
  C  C652  1  0.50321151  -0.38549251  0.43767655  1
  N  N653  1  0.43561872  -0.33857484  0.51383793  1
  N  N654  1  0.44240425  -0.30097000  0.54096039  1
  C  C655  1  0.52368856  -0.24970781  0.54225913  1
  O  O656  1  0.55319468  -0.38263118  0.39921697  1
  O  O657  1  0.47208050  -0.41858097  0.44114036  1
  H  H658  1  0.41078691  -0.28651867  0.57263461  1
  O  O659  1  0.58569110  -0.25042331  0.52243604  1
  O  O660  1  0.48840840  -0.22210443  0.57702201  1
  H  H661  1  0.57012430  -0.35172237  0.40192676  1
  H  H662  1  0.59643279  -0.22731284  0.54151126  1
  H  H663  1  0.69232410  0.11500721  0.30356183  1
  C  C664  1  0.69622892  0.10541864  0.26671204  1
  H  H665  1  0.65581961  0.09065020  0.26760462  1
  N  N666  1  0.69583471  0.15995218  0.23176365  1
  H  H667  1  0.74187698  0.06718952  0.25657973  1
  C  C668  1  0.66301713  0.17514830  0.19293597  1
  C  C669  1  0.73625725  0.19137686  0.23299228  1
  N  N670  1  0.67484645  0.21708777  0.15324324  1
  O  O671  1  0.62442969  0.15070628  0.19235320  1
  C  C672  1  0.73750684  0.24423655  0.19607760  1
  O  O673  1  0.76967894  0.17591872  0.26462164  1
  C  C674  1  0.67586284  0.20514583  0.10461653  1
  C  C675  1  0.70581956  0.25583685  0.15817452  1
  N  N676  1  0.76687163  0.28799990  0.18645769  1
  H  H677  1  0.69923460  0.15585125  0.10098920  1
  H  H678  1  0.70454574  0.22812675  0.07657896  1
  H  H679  1  0.62631121  0.22082908  0.09743820  1
  N  N680  1  0.71174331  0.30719161  0.12649520  1
  C  C681  1  0.74861374  0.32521138  0.14416691  1
  C  C682  1  0.82086364  0.28546430  0.20761035  1
  H  H683  1  0.76398139  0.36379235  0.12703818  1
  H  H684  1  0.81849253  0.33196516  0.20912186  1
  H  H685  1  0.86789722  0.26122803  0.18508701  1
  H  H686  1  0.81917929  0.26120492  0.24460047  1
  H  H687  1  0.91470120  0.28545656  0.05567302  1
  C  C688  1  0.89372101  0.27676294  0.02889286  1
  C  C689  1  0.85918285  0.23455075  0.03602446  1
  C  C690  1  0.89583743  0.30195044  -0.01850166  1
  C  C691  1  0.84825671  0.19490984  0.08122506  1
  N  N692  1  0.84068487  0.23528434  -0.00422141  1
  N  N693  1  0.86153711  0.27726209  -0.03708242  1
  C  C694  1  0.92546153  0.34669768  -0.04516652  1
  O  O695  1  0.82655136  0.14896562  0.08087288  1
  O  O696  1  0.86117012  0.20430759  0.11713102  1
  H  H697  1  0.85377819  0.28895364  -0.07220947  1
  O  O698  1  0.90537773  0.37606597  -0.08789936  1
  O  O699  1  0.96631477  0.35505660  -0.02899620  1
  H  H700  1  0.81991333  0.14954519  0.04830942  1
  H  H701  1  0.93016189  0.40272310  -0.10395177  1
  H  H702  1  0.68816146  0.06526655  -0.15326226  1
  C  C703  1  0.66238072  0.11072327  -0.17081980  1
  H  H704  1  0.61053735  0.11724943  -0.16346150  1
  N  N705  1  0.67107348  0.16052517  -0.15348430  1
  H  H706  1  0.68098122  0.11055921  -0.21015014  1
  C  C707  1  0.64498763  0.22123990  -0.17532843  1
  C  C708  1  0.70147610  0.14935147  -0.11381220  1
  N  N709  1  0.65292475  0.27019662  -0.16101934  1
  O  O710  1  0.61388313  0.23257990  -0.20768873  1
  C  C711  1  0.70804706  0.20111607  -0.09767202  1
  O  O712  1  0.72135612  0.09728321  -0.09180038  1
  C  C713  1  0.62243208  0.33358442  -0.18274427  1
  C  C714  1  0.68556512  0.25865509  -0.12259849  1
  N  N715  1  0.73439462  0.20877591  -0.06162182  1
  H  H716  1  0.64773854  0.33989933  -0.22036337  1
  H  H717  1  0.62415718  0.36720393  -0.16255268  1
  H  H718  1  0.57088127  0.34396197  -0.18272528  1
  N  N719  1  0.69906976  0.30113420  -0.10429840  1
  C  C720  1  0.72708358  0.27051155  -0.06726642  1
  C  C721  1  0.76292037  0.16175628  -0.02344660  1
  H  H722  1  0.74177187  0.29170484  -0.04411906  1
  H  H723  1  0.74730727  0.18123514  0.01115657  1
  H  H724  1  0.81651163  0.14482153  -0.03321204  1
  H  H725  1  0.74632145  0.12299081  -0.01806022  1
  H  H726  1  0.95344471  0.34307431  0.61691596  1
  C  C727  1  0.92216841  0.36767618  0.64760481  1
  C  C728  1  0.85173504  0.39729550  0.65571506  1
  C  C729  1  0.94122549  0.37369790  0.68704819  1
  C  C730  1  0.81276941  0.39079140  0.62447114  1
  N  N731  1  0.83006534  0.42460737  0.69599342  1
  N  N732  1  0.88476574  0.41197607  0.71439406  1
  C  C733  1  1.00788065  0.34446612  0.69630932  1
  O  O734  1  0.74620418  0.40976984  0.63928727  1
  O  O735  1  0.84250947  0.36740008  0.58660755  1
  H  H736  1  0.88350332  0.42368759  0.74737034  1
  O  O737  1  1.02984132  0.37352939  0.72101435  1
  O  O738  1  1.04012626  0.29385248  0.68200612  1
  H  H739  1  0.72843678  0.39707968  0.61723024  1
  H  H740  1  1.07351285  0.34590537  0.72631891  1
  H  H741  1  0.56202748  0.10396112  0.52682234  1
  C  C742  1  0.53406460  0.09125007  0.56203824  1
  H  H743  1  0.49535072  0.13387054  0.57420811  1
  N  N744  1  0.50558301  0.04648303  0.55896889  1
  H  H745  1  0.56710905  0.07155527  0.58807052  1
  C  C746  1  0.52891118  0.01075136  0.51998171  1
  C  C747  1  0.45909679  0.03409161  0.59825052  1
  N  N748  1  0.50722905  -0.03686910  0.52017136  1
  O  O749  1  0.56939929  0.02084043  0.48493795  1
  C  C750  1  0.42802016  -0.00760928  0.59402801  1
  O  O751  1  0.44556752  0.05582090  0.63677970  1
  C  C752  1  0.55255904  -0.09321425  0.49904730  1
  C  C753  1  0.45232589  -0.04060373  0.55487175  1
  N  N754  1  0.37856650  -0.02729643  0.62225646  1
  H  H755  1  0.52613529  -0.11739091  0.48889919  1
  H  H756  1  0.58617923  -0.08321304  0.46622910  1
  H  H757  1  0.58123215  -0.12398399  0.52597295  1
  N  N758  1  0.41869771  -0.07920824  0.55713556  1
  C  C759  1  0.37486174  -0.07020087  0.59787069  1
  C  C760  1  0.34079763  -0.01113249  0.67073319  1
  H  H761  1  0.34032299  -0.09396458  0.61129114  1
  H  H762  1  0.30148935  -0.02980730  0.68142590  1
  H  H763  1  0.31872916  0.03894505  0.67059922  1
  H  H764  1  0.37252360  -0.03056151  0.69766718  1
  H  H765  1  0.76375208  0.64310343  0.18318737  1
  C  C766  1  0.71889685  0.64231142  0.17681583  1
  C  C767  1  0.68594168  0.67553413  0.13616357  1
  C  C768  1  0.67923278  0.61412688  0.20772926  1
  C  C769  1  0.70554241  0.72092298  0.09855685  1
  N  N770  1  0.63188282  0.66454029  0.14098501  1
  N  N771  1  0.62964611  0.62530289  0.18303230  1
  C  C772  1  0.68539232  0.58091049  0.25688768  1
  O  O773  1  0.76983911  0.71605191  0.08775625  1
  O  O774  1  0.66223459  0.76228936  0.07978805  1
  H  H775  1  0.59341732  0.60737696  0.19632439  1
  O  O776  1  0.64293455  0.55104246  0.27966621  1
  O  O777  1  0.72687377  0.58382875  0.27559476  1
  H  H778  1  0.79594593  0.67960664  0.10626110  1
  H  H779  1  0.65253872  0.53189159  0.31202876  1
  H  H780  1  0.87105374  0.62010122  -0.03160882  1
  C  C781  1  0.84406663  0.67001263  -0.03403049  1
  H  H782  1  0.86348342  0.68992016  -0.06986868  1
  N  N783  1  0.77353256  0.68428871  -0.02697953  1
  H  H784  1  0.85348847  0.68858229  -0.00584926  1
  C  C785  1  0.73311366  0.74129486  -0.04692414  1
  C  C786  1  0.74490567  0.64548100  0.00610991  1
  N  N787  1  0.66497534  0.75963069  -0.03364711  1
  O  O788  1  0.75699707  0.77691948  -0.07519294  1
  C  C789  1  0.67445322  0.66031277  0.01259239  1
  O  O790  1  0.77604109  0.60258671  0.03302153  1
  C  C791  1  0.62313871  0.82414912  -0.04255630  1
  C  C792  1  0.63698641  0.71689467  -0.00696234  1
  N  N793  1  0.63065576  0.63162783  0.03695610  1
  H  H794  1  0.57435737  0.83465272  -0.01905259  1
  H  H795  1  0.64469715  0.85449494  -0.03518826  1
  H  H796  1  0.61808975  0.83417650  -0.08071436  1
  N  N797  1  0.57102416  0.72500610  0.00480387  1
  C  C798  1  0.56901691  0.67357068  0.03146971  1
  C  C799  1  0.64454442  0.56927980  0.06333698  1
  H  H800  1  0.52409436  0.66470066  0.04699485  1
  H  H801  1  0.68325644  0.55768166  0.08402519  1
  H  H802  1  0.60016307  0.56699511  0.08907524  1
  H  H803  1  0.65963391  0.53529848  0.03765998  1
  H  H804  1  0.63292832  0.74850652  -0.11997441  1
  C  C805  1  0.60469674  0.74114595  -0.14215821  1
  C  C806  1  0.62981659  0.70061632  -0.18047978  1
  C  C807  1  0.53839354  0.76592885  -0.13840345  1
  C  C808  1  0.69876438  0.66101342  -0.19556840  1
  N  N809  1  0.58121226  0.70126891  -0.19827828  1
  N  N810  1  0.52587353  0.74130290  -0.17342042  1
  C  C811  1  0.48895623  0.80636492  -0.10343576  1
  O  O812  1  0.71422836  0.62636936  -0.23310368  1
  O  O813  1  0.73876059  0.65961207  -0.17300670  1
  H  H814  1  0.48047180  0.75426235  -0.18159738  1
  O  O815  1  0.42606282  0.81017470  -0.09823859  1
  O  O816  1  0.50549024  0.83526472  -0.08169299  1
  H  H817  1  0.76079055  0.60073868  -0.23765655  1
  H  H818  1  0.42396028  0.78385610  -0.11931138  1
  H  H819  1  0.85874710  0.88840132  0.56776695  1
  C  C820  1  0.88674346  0.84419436  0.58628720  1
  H  H821  1  0.93212955  0.82229620  0.56104719  1
  N  N822  1  0.84918406  0.80335800  0.60127529  1
  H  H823  1  0.89947357  0.85412963  0.61741627  1
  C  C824  1  0.85359774  0.76287604  0.64467716  1
  C  C825  1  0.81420483  0.79992163  0.56885552  1
  N  N826  1  0.82877579  0.71542854  0.65463457  1
  O  O827  1  0.87956377  0.76910436  0.67508448  1
  C  C828  1  0.78515045  0.75247566  0.58038268  1
  O  O829  1  0.80895627  0.83510087  0.53061808  1
  C  C830  1  0.83545891  0.67261412  0.69978435  1
  C  C831  1  0.79456278  0.71137315  0.62162834  1
  N  N832  1  0.74736410  0.73634920  0.55830827  1
  H  H833  1  0.81782516  0.63563958  0.70035628  1
  H  H834  1  0.80699537  0.69739262  0.73153076  1
  H  H835  1  0.88706250  0.65100279  0.70323258  1
  N  N836  1  0.76522351  0.66896375  0.62492499  1
  C  C837  1  0.73690758  0.68542806  0.58696056  1
  C  C838  1  0.72246543  0.76718595  0.51363033  1
  H  H839  1  0.70759702  0.66263939  0.57969237  1
  H  H840  1  0.71216420  0.73558785  0.49659105  1
  H  H841  1  0.67774707  0.80719816  0.52181359  1
  H  H842  1  0.75932215  0.78260323  0.48773779  1
  H  H843  1  0.39813406  0.24086133  0.38192428  1
  C  C844  1  0.42445312  0.21845292  0.41163405  1
  C  C845  1  0.46376881  0.24177576  0.42964853  1
  C  C846  1  0.42768181  0.16347958  0.43890817  1
  C  C847  1  0.46728698  0.30335467  0.41319908  1
  N  N848  1  0.49054816  0.20222145  0.46488556  1
  N  N849  1  0.46905668  0.15476619  0.47017851  1
  C  C850  1  0.39543109  0.12209038  0.43585903  1
  O  O851  1  0.42095037  0.34505436  0.38778230  1
  O  O852  1  0.50943513  0.31508749  0.42459811  1
  H  H853  1  0.48198312  0.11617460  0.49480253  1
  O  O854  1  0.35070265  0.14226283  0.40586005  1
  O  O855  1  0.41050564  0.07145983  0.46033947  1
  H  H856  1  0.42743252  0.38449643  0.38032576  1
  H  H857  1  0.34327624  0.18516088  0.39285109  1
  H  H858  1  0.14969544  0.30054501  0.63347694  1
  C  C859  1  0.19889264  0.26667404  0.62318686  1
  H  H860  1  0.22898728  0.26465191  0.64848936  1
  N  N861  1  0.19626254  0.20539182  0.62489180  1
  H  H862  1  0.22058565  0.28324091  0.58690008  1
  C  C863  1  0.17645208  0.17487101  0.67013887  1
  C  C864  1  0.21639271  0.17544264  0.58276155  1
  N  N865  1  0.17731039  0.11487340  0.67403984  1
  O  O866  1  0.15983989  0.20014645  0.70756281  1
  C  C867  1  0.22084526  0.11117919  0.58757808  1
  O  O868  1  0.22689288  0.20278652  0.54169712  1
  C  C869  1  0.15980230  0.08230368  0.72149077  1
  C  C870  1  0.20113092  0.08350978  0.63254563  1
  N  N871  1  0.23937156  0.06676437  0.55643110  1
  H  H872  1  0.11450137  0.11177871  0.74289190  1
  H  H873  1  0.15267373  0.04059593  0.71782918  1
  H  H874  1  0.19941996  0.06870702  0.74126359  1
  N  N875  1  0.20498594  0.02412317  0.63006274  1
  C  C876  1  0.22661076  0.01598250  0.58377396  1
  C  C877  1  0.26723773  0.07106936  0.50409034  1
  H  H878  1  0.23349654  -0.02523427  0.56878464  1
  H  H879  1  0.22942935  0.07964809  0.48365589  1
  H  H880  1  0.30797955  0.02815787  0.49467371  1
  H  H881  1  0.28526581  0.10916319  0.49337615  1
  H  H882  1  -0.15127441  -0.30500109  -0.14862436  1
  C  C883  1  -0.12848524  -0.27536836  -0.17428474  1
  C  C884  1  -0.15972777  -0.22271590  -0.20680583  1
  C  C885  1  -0.06486650  -0.28059717  -0.18344561  1
  C  C886  1  -0.22806437  -0.20248142  -0.21078283  1
  N  N887  1  -0.11793517  -0.19719797  -0.23365805  1
  N  N888  1  -0.06009596  -0.23211819  -0.21915496  1
  C  C889  1  -0.01252822  -0.32793952  -0.16105864  1
  O  O890  1  -0.24514975  -0.16760369  -0.25297919  1
  O  O891  1  -0.26645624  -0.21732815  -0.17651119  1
  H  H892  1  -0.01737733  -0.22423874  -0.23346132  1
  O  O893  1  -0.02591961  -0.37481151  -0.12909764  1
  O  O894  1  0.04133072  -0.32326666  -0.17310747  1
  H  H895  1  -0.20707052  -0.15996387  -0.27458307  1
  H  H896  1  0.01346539  -0.40215854  -0.11681254  1
  H  H897  1  -0.00007089  -0.06498189  0.64630153  1
  C  C898  1  -0.05362303  -0.04365223  0.65416239  1
  H  H899  1  -0.06615260  -0.01040570  0.67978284  1
  N  N900  1  -0.07862328  -0.01386679  0.60889296  1
  H  H901  1  -0.07386670  -0.07935584  0.67226420  1
  C  C902  1  -0.12741016  0.04532578  0.60585574  1
  C  C903  1  -0.05512751  -0.04641078  0.56831573  1
  N  N904  1  -0.15272723  0.07246035  0.56330807  1
  O  O905  1  -0.14926531  0.07439186  0.64118828  1
  C  C906  1  -0.08329493  -0.01921066  0.52442640  1
  O  O907  1  -0.01093398  -0.09740073  0.56917988  1
  C  C908  1  -0.21450088  0.12553405  0.56387358  1
  C  C909  1  -0.12895911  0.03932565  0.52290054  1
  N  N910  1  -0.07645485  -0.03863381  0.48014688  1
  H  H911  1  -0.22329116  0.15488294  0.59179565  1
  H  H912  1  -0.25542415  0.10946113  0.57141011  1
  H  H913  1  -0.21438215  0.15410217  0.52851349  1
  N  N914  1  -0.14771295  0.05867681  0.47788548  1
  C  C915  1  -0.11636449  0.01088926  0.45328547  1
  C  C916  1  -0.03958735  -0.10078341  0.46551569  1
  H  H917  1  -0.12142639  0.01099204  0.41638760  1
  H  H918  1  -0.00652823  -0.09885323  0.43030032  1
  H  H919  1  -0.00978267  -0.13027872  0.49200763  1
  H  H920  1  -0.07383676  -0.12164195  0.46300306  1
  H  H921  1  -0.06359406  0.69582126  0.34491904  1
  C  C922  1  -0.01583782  0.66315337  0.35113980  1
  C  C923  1  0.00256878  0.59697458  0.36503317  1
  C  C924  1  0.03818685  0.67653299  0.34845121  1
  C  C925  1  -0.04266043  0.56357371  0.37469871  1
  N  N926  1  0.06451132  0.57189839  0.36937900  1
  N  N927  1  0.08620953  0.62007049  0.35956592  1
  C  C928  1  0.04298307  0.73780166  0.33644540  1
  O  O929  1  -0.02915679  0.50860576  0.40475088  1
  O  O930  1  -0.09123222  0.58772900  0.35599726  1
  H  H931  1  0.13306772  0.61517263  0.36002012  1
  O  O932  1  -0.00772233  0.78534793  0.31948300  1
  O  O933  1  0.09203618  0.74327514  0.34219420  1
  H  H934  1  0.00984318  0.50052926  0.41761660  1
  H  H935  1  0.00209748  0.82295056  0.31261793  1
  H  H936  1  0.08846195  0.26246843  0.01573480  1
  C  C937  1  0.08919469  0.26181554  0.05414387  1
  H  H938  1  0.06337252  0.30937403  0.06303422  1
  N  N939  1  0.05817747  0.22077927  0.08748374  1
  H  H940  1  0.14042106  0.24701953  0.05768289  1
  C  C941  1  0.03465051  0.18420528  0.07011954  1
  C  C942  1  0.05162894  0.21839750  0.13790303  1
  N  N943  1  0.00538072  0.14546998  0.10242788  1
  O  O944  1  0.03936011  0.18564394  0.02604186  1
  C  C945  1  0.01030077  0.18692886  0.17149343  1
  O  O946  1  0.07654750  0.24568931  0.15420409  1
  C  C947  1  -0.00524967  0.09741227  0.08425065  1
  C  C948  1  -0.01247385  0.15269206  0.15257016  1
  N  N949  1  -0.01699725  0.18410770  0.22114147  1
  H  H950  1  0.04158942  0.06048586  0.07359848  1
  H  H951  1  -0.02820943  0.11594604  0.05214085  1
  H  H952  1  -0.03720460  0.07753664  0.11212205  1
  N  N953  1  -0.05532178  0.13080418  0.18883058  1
  C  C954  1  -0.05658705  0.14946317  0.22946528  1
  C  C955  1  -0.00958836  0.21412738  0.25838246  1
  H  H956  1  -0.08543637  0.13939266  0.26484707  1
  H  H957  1  0.03409045  0.18525573  0.27363267  1
  H  H958  1  -0.00577546  0.25899154  0.24268232  1
  H  H959  1  -0.05249754  0.22158890  0.28816231  1
  H  H960  1  0.11296420  0.43854563  0.67965554  1
  C  C961  1  0.16476344  0.42546668  0.66358465  1
  C  C962  1  0.21823724  0.37466036  0.68195739  1
  C  C963  1  0.19295293  0.45611473  0.62444280  1
  C  C964  1  0.20987241  0.33405150  0.72734935  1
  N  N965  1  0.27496630  0.37355142  0.65433208  1
  N  N966  1  0.25977288  0.42172094  0.61855077  1
  C  C967  1  0.16041109  0.51516057  0.59709803  1
  O  O968  1  0.25872765  0.31140991  0.75349473  1
  O  O969  1  0.15844456  0.32429132  0.74028202  1
  H  H970  1  0.29431118  0.43403433  0.59232831  1
  O  O971  1  0.09456615  0.54564912  0.61193288  1
  O  O972  1  0.19525073  0.53551708  0.56354480  1
  H  H973  1  0.24802428  0.28360022  0.78176925  1
  H  H974  1  0.08073799  0.58430894  0.59072425  1
  H  H975  1  0.00270710  0.55431873  0.23771723  1
  C  C976  1  0.01238477  0.59283686  0.24543333  1
  H  H977  1  -0.03060242  0.61763239  0.27105225  1
  N  N978  1  0.02399243  0.63415925  0.20101993  1
  H  H979  1  0.05463706  0.57421115  0.26332820  1
  C  C980  1  0.04629426  0.61292571  0.15523304  1
  C  C981  1  0.01750161  0.69440672  0.20395861  1
  N  N982  1  0.05601921  0.65220335  0.11274570  1
  O  O983  1  0.05812935  0.55862999  0.15205323  1
  C  C984  1  0.01888047  0.73783439  0.15943781  1
  O  O985  1  0.00975039  0.71147413  0.24351682  1
  C  C986  1  0.09447617  0.62594653  0.06776059  1
  C  C987  1  0.03742734  0.71530870  0.11546154  1
  N  N988  1  0.00489370  0.80090524  0.14810733  1
  H  H989  1  0.07040586  0.59987728  0.05718399  1
  H  H990  1  0.10072616  0.66124349  0.03757696  1
  H  H991  1  0.14337003  0.59481329  0.07372570  1
  N  N992  1  0.03531853  0.76236563  0.07718283  1
  C  C993  1  0.01571359  0.81296607  0.09755946  1
  C  C994  1  -0.02066253  0.84751749  0.18214735  1
  H  H995  1  0.00944258  0.85803292  0.07687318  1
  H  H996  1  0.01203473  0.87331788  0.17580515  1
  H  H997  1  -0.02460805  0.82625543  0.22013186  1
  H  H998  1  -0.06956792  0.87939874  0.17712409  1
  H  H999  1  -0.37761106  0.49170034  -0.36126032  1
  C  C1000  1  -0.42785084  0.50338895  -0.34111385  1
  C  C1001  1  -0.47972641  0.56352290  -0.34270324  1
  C  C1002  1  -0.45523757  0.46440088  -0.31023607  1
  C  C1003  1  -0.47356332  0.62040814  -0.37001760  1
  N  N1004  1  -0.53471623  0.56078486  -0.31496864  1
  N  N1005  1  -0.51986483  0.50092563  -0.29465498  1
  C  C1006  1  -0.42478463  0.39810661  -0.29793833  1
  O  O1007  1  -0.52140236  0.67465838  -0.35588659  1
  O  O1008  1  -0.42551898  0.61665146  -0.40293288  1
  H  H1009  1  -0.55418856  0.48488266  -0.27169636  1
  O  O1010  1  -0.46344818  0.36623670  -0.27077085  1
  O  O1011  1  -0.36623840  0.37447478  -0.31389903  1
  H  H1012  1  -0.51010430  0.70960644  -0.37462692  1
  H  H1013  1  -0.50835150  0.39434278  -0.26187645  1
  H  H1014  1  0.06294519  0.55207984  0.80438925  1
  C  C1015  1  0.11536359  0.54314395  0.79158151  1
  H  H1016  1  0.12872029  0.57208637  0.80905477  1
  N  N1017  1  0.13187439  0.55690309  0.73845057  1
  H  H1018  1  0.14207720  0.49509824  0.80383152  1
  C  C1019  1  0.19649615  0.52895497  0.71406323  1
  C  C1020  1  0.09026404  0.61062103  0.71601206  1
  N  N1021  1  0.22331950  0.55864558  0.67121953  1
  O  O1022  1  0.22976304  0.47730086  0.73054661  1
  C  C1023  1  0.11839587  0.64228903  0.67191914  1
  O  O1024  1  0.03112574  0.63145742  0.73284557  1
  C  C1025  1  0.29180177  0.53278945  0.64615533  1
  C  C1026  1  0.18329055  0.61594576  0.65155539  1
  N  N1027  1  0.09520662  0.69736450  0.64286850  1
  H  H1028  1  0.29358924  0.52897927  0.60813794  1
  H  H1029  1  0.31794604  0.56291339  0.64645909  1
  H  H1030  1  0.31815234  0.48669006  0.66308107  1
  N  N1031  1  0.20131650  0.65270023  0.61024039  1
  C  C1032  1  0.14743608  0.70074614  0.60592780  1
  C  C1033  1  0.02801253  0.74283492  0.64872071  1
  H  H1034  1  0.14391004  0.73920963  0.57726978  1
  H  H1035  1  -0.00267638  0.72568002  0.63590171  1
  H  H1036  1  0.00802376  0.75059612  0.68712858  1
  H  H1037  1  0.02647056  0.78719766  0.62740530  1
  H  H1038  1  0.29642917  0.23389570  0.32613779  1
  C  C1039  1  0.26322096  0.28102262  0.31890357  1
  C  C1040  1  0.23349982  0.30848453  0.27588899  1
  C  C1041  1  0.23928144  0.32617149  0.34903239  1
  C  C1042  1  0.24036884  0.27689161  0.23462480  1
  N  N1043  1  0.19626572  0.36675535  0.27945617  1
  N  N1044  1  0.19975773  0.37732289  0.32362893  1
  C  C1045  1  0.25080805  0.32341016  0.39781286  1
  O  O1046  1  0.20474686  0.30927330  0.19925881  1
  O  O1047  1  0.27703092  0.22289546  0.23420250  1
  H  H1048  1  0.17737171  0.41978413  0.33615234  1
  O  O1049  1  0.22773708  0.37734472  0.41810019  1
  O  O1050  1  0.27708983  0.27255303  0.41902792  1
  H  H1051  1  0.21081869  0.28133565  0.17610258  1
  H  H1052  1  0.23682973  0.36808416  0.45098542  1
  H  H1053  1  0.30384652  0.23484743  -0.09877381  1
  C  C1054  1  0.26228162  0.25224958  -0.11750661  1
  H  H1055  1  0.22663484  0.29460923  -0.10302367  1
  N  N1056  1  0.23182547  0.20578040  -0.10921078  1
  H  H1057  1  0.28067032  0.26406123  -0.15617430  1
  C  C1058  1  0.22816872  0.18009450  -0.14795005  1
  C  C1059  1  0.21141462  0.18279695  -0.06113955  1
  N  N1060  1  0.20703989  0.13022356  -0.13945234  1
  O  O1061  1  0.24294920  0.20179593  -0.19037367  1
  C  C1062  1  0.19341294  0.12774003  -0.05214790  1
  O  O1063  1  0.21179133  0.20651837  -0.02668847  1
  C  C1064  1  0.20108091  0.10580041  -0.18032545  1
  C  C1065  1  0.19150687  0.10383763  -0.09137380  1
  N  N1066  1  0.17734720  0.08882907  -0.01164635  1
  H  H1067  1  0.19144567  0.06282792  -0.16869972  1
  H  H1068  1  0.24672620  0.09595864  -0.20773854  1
  H  H1069  1  0.16063253  0.13960532  -0.19719112  1
  N  N1070  1  0.17162474  0.05335180  -0.07642612  1
  C  C1071  1  0.16339164  0.04555732  -0.02859145  1
  C  C1072  1  0.18343757  0.08675989  0.03874643  1
  H  H1073  1  0.14866834  0.00892499  -0.00539179  1
  H  H1074  1  0.14616783  0.07179999  0.06481440  1
  H  H1075  1  0.23201281  0.05424707  0.04415099  1
  H  H1076  1  0.17703014  0.13235460  0.04638626  1
  H  H1077  1  0.48987498  0.29422005  0.71108902  1
  C  C1078  1  0.51558675  0.24735620  0.72599956  1
  C  C1079  1  0.57938829  0.20564081  0.70504101  1
  C  C1080  1  0.49185899  0.21519395  0.76645146  1
  C  C1081  1  0.61822526  0.22175467  0.65855682  1
  N  N1082  1  0.59430851  0.15153313  0.73181631  1
  N  N1083  1  0.54143005  0.15751784  0.76933881  1
  C  C1084  1  0.42699516  0.23721392  0.79814992  1
  O  O1085  1  0.61402724  0.28192664  0.64658695  1
  O  O1086  1  0.65010655  0.18100062  0.63189292  1
  H  H1087  1  0.53757208  0.12229510  0.79602240  1
  O  O1088  1  0.41243773  0.19947761  0.83886894  1
  O  O1089  1  0.38861861  0.28849802  0.78585057  1
  H  H1090  1  0.59021814  0.30475737  0.67472439  1
  H  H1091  1  0.44865946  0.15969665  0.84060519  1
  H  H1092  1  0.33988666  0.06434827  0.28995894  1
  C  C1093  1  0.35627090  0.10250567  0.28779417  1
  H  H1094  1  0.36799077  0.11850399  0.24897852  1
  N  N1095  1  0.41373754  0.08377757  0.31000910  1
  H  H1096  1  0.31593110  0.13952615  0.30634232  1
  C  C1097  1  0.43015893  0.03032401  0.34347848  1
  C  C1098  1  0.45018791  0.12206410  0.30022823  1
  N  N1099  1  0.48815153  0.00999781  0.36118414  1
  O  O1100  1  0.39420656  0.00005039  0.35716000  1
  C  C1101  1  0.50436658  0.10526688  0.32585505  1
  O  O1102  1  0.43495214  0.17096242  0.27297254  1
  C  C1103  1  0.50872030  -0.04899202  0.39146436  1
  C  C1104  1  0.52212425  0.05001614  0.35473145  1
  N  N1105  1  0.54392513  0.13444587  0.33128444  1
  H  H1106  1  0.50215565  -0.08419289  0.37610824  1
  H  H1107  1  0.56069340  -0.06441773  0.39287917  1
  H  H1108  1  0.47921764  -0.04476727  0.42848464  1
  N  N1109  1  0.57216309  0.04365228  0.37762955  1
  C  C1110  1  0.58307735  0.09551718  0.36406033  1
  C  C1111  1  0.54416882  0.19518578  0.30731988  1
  H  H1112  1  0.61846955  0.10625074  0.37677501  1
  H  H1113  1  0.50640566  0.23201762  0.32759888  1
  H  H1114  1  0.59164784  0.19808204  0.30525137  1
  H  H1115  1  0.53567792  0.20263403  0.27001364  1
  H  H1116  1  0.41307347  0.44157216  -0.20023159  1
  C  C1117  1  0.36599918  0.43717013  -0.18356155  1
  C  C1118  1  0.30206324  0.48217615  -0.18996496  1
  C  C1119  1  0.35538727  0.38968909  -0.15105557  1
  C  C1120  1  0.29324835  0.54035928  -0.22252955  1
  N  N1121  1  0.25556338  0.46259191  -0.16329579  1
  N  N1122  1  0.28766443  0.40580201  -0.14082094  1
  C  C1123  1  0.40552843  0.33520547  -0.13074086  1
  O  O1124  1  0.34489056  0.54179243  -0.25909199  1
  O  O1125  1  0.24104236  0.58386870  -0.21654353  1
  H  H1126  1  0.26415650  0.37786242  -0.11905294  1
  O  O1127  1  0.38643035  0.29844204  -0.09086091  1
  O  O1128  1  0.46256479  0.32465122  -0.15208459  1
  H  H1129  1  0.33339302  0.58292634  -0.27775437  1
  H  H1130  1  0.33894059  0.31466632  -0.07930268  1
  H  H1131  1  0.27877789  0.32457986  0.52475002  1
  C  C1132  1  0.32578344  0.29040892  0.50995232  1
  H  H1133  1  0.34741166  0.31280655  0.47633761  1
  N  N1134  1  0.36770986  0.26794518  0.54653115  1
  H  H1135  1  0.31694343  0.25254680  0.50021543  1
  C  C1136  1  0.40078155  0.30363473  0.55335869  1
  C  C1137  1  0.36438734  0.21773668  0.58127085  1
  N  N1138  1  0.42362222  0.29402456  0.59654348  1
  O  O1139  1  0.41018177  0.34366502  0.52086485  1
  C  C1140  1  0.37338786  0.21754652  0.63027540  1
  O  O1141  1  0.35286453  0.17543842  0.57165644  1
  C  C1142  1  0.46087523  0.32881363  0.60384189  1
  C  C1143  1  0.40192088  0.25622359  0.63607861  1
  N  N1144  1  0.35652102  0.18998819  0.67697732  1
  H  H1145  1  0.48949025  0.34216472  0.56916373  1
  H  H1146  1  0.42763039  0.37052904  0.62084820  1
  H  H1147  1  0.49568091  0.30026401  0.62744849  1
  N  N1148  1  0.40242228  0.25439162  0.68483281  1
  C  C1149  1  0.37503910  0.21441821  0.70832810  1
  C  C1150  1  0.32275727  0.14580202  0.69306869  1
  H  H1151  1  0.36703677  0.20200122  0.74774388  1
  H  H1152  1  0.27742618  0.16520265  0.71922927  1
  H  H1153  1  0.31091856  0.13521273  0.66182447  1
  H  H1154  1  0.35376539  0.10277835  0.71100806  1
  H  H1155  1  0.27417093  0.46226018  0.21704739  1
  C  C1156  1  0.29935582  0.41823240  0.20257481  1
  C  C1157  1  0.34827092  0.36410121  0.22317648  1
  C  C1158  1  0.29014077  0.40168626  0.16273341  1
  C  C1159  1  0.36890194  0.35818131  0.26933576  1
  N  N1160  1  0.36869885  0.31827675  0.19651125  1
  N  N1161  1  0.33427321  0.34149068  0.15961166  1
  C  C1162  1  0.24403589  0.43786363  0.13000191  1
  O  O1163  1  0.40698488  0.30053858  0.28724480  1
  O  O1164  1  0.34892750  0.40422442  0.29038073  1
  H  H1165  1  0.34004066  0.31692354  0.13207731  1
  O  O1166  1  0.20101018  0.49530597  0.14039148  1
  O  O1167  1  0.24666271  0.41435491  0.09473975  1
  H  H1168  1  0.41536112  0.27063670  0.26511779  1
  H  H1169  1  0.17291241  0.51212771  0.11621033  1
  H  H1170  1  0.61467960  0.60536297  -0.11357453  1
  C  C1171  1  0.57823984  0.61280752  -0.07950282  1
  H  H1172  1  0.58891996  0.56874805  -0.05596122  1
  N  N1173  1  0.51088568  0.63495398  -0.08844477  1
  H  H1174  1  0.58539776  0.64616826  -0.06221774  1
  C  C1175  1  0.45686551  0.66845047  -0.05521231  1
  C  C1176  1  0.49895072  0.61561214  -0.12710442  1
  N  N1177  1  0.39252894  0.67910536  -0.05837048  1
  O  O1178  1  0.46543015  0.68839259  -0.02208730  1
  C  C1179  1  0.43156168  0.63499365  -0.13428588  1
  O  O1180  1  0.54392919  0.58162712  -0.15462587  1
  C  C1181  1  0.33949902  0.68902668  -0.01554921  1
  C  C1182  1  0.38101689  0.66491150  -0.09957830  1
  N  N1183  1  0.40173670  0.63039697  -0.16926458  1
  H  H1184  1  0.29574876  0.72606385  -0.02516052  1
  H  H1185  1  0.32827552  0.64707019  -0.00233898  1
  H  H1186  1  0.35164467  0.70193640  0.01429774  1
  N  N1187  1  0.32041566  0.67812083  -0.11113379  1
  C  C1188  1  0.33439498  0.65751467  -0.15352796  1
  C  C1189  1  0.43445334  0.60353164  -0.21513752  1
  H  H1190  1  0.29785390  0.66100901  -0.17353974  1
  H  H1191  1  0.46660819  0.55539586  -0.20811823  1
  H  H1192  1  0.46322008  0.63004354  -0.23895477  1
  H  H1193  1  0.39761663  0.60469314  -0.23406578  1
  H  H1194  1  0.38750535  0.93222034  0.90034166  1
  C  C1195  1  0.38360024  0.97617230  0.87824961  1
  C  C1196  1  0.36655890  1.03474241  0.89623152  1
  C  C1197  1  0.39867115  0.98687451  0.82849440  1
  C  C1198  1  0.35285579  1.04508132  0.94760071  1
  N  N1199  1  0.36954743  1.07812273  0.85946771  1
  N  N1200  1  0.38803198  1.04945499  0.81850319  1
  C  C1201  1  0.42634208  0.94260514  0.79232379  1
  O  O1202  1  0.34062008  1.10354051  0.95601576  1
  O  O1203  1  0.35491119  1.00183585  0.97991367  1
  H  H1204  1  0.39795626  1.07063743  0.78384961  1
  O  O1205  1  0.45398312  0.96207877  0.74649855  1
  O  O1206  1  0.42372042  0.89093841  0.80460942  1
  H  H1207  1  0.32980217  1.10566761  0.99112375  1
  H  H1208  1  0.46948362  0.92958652  0.72549497  1
  H  H1209  1  0.45392427  0.27745573  0.00865872  1
  C  C1210  1  0.41597042  0.32358219  0.00667810  1
  H  H1211  1  0.36811171  0.31861034  0.01774052  1
  N  N1212  1  0.42062649  0.36320800  0.03804318  1
  H  H1213  1  0.42127404  0.34371435  -0.03155753  1
  C  C1214  1  0.38414663  0.42648000  0.03338350  1
  C  C1215  1  0.46114264  0.33958778  0.07245011  1
  N  N1216  1  0.37769131  0.46487420  0.06698112  1
  O  O1217  1  0.36073772  0.44974917  -0.00308105  1
  C  C1218  1  0.45887011  0.38061958  0.10525684  1
  O  O1219  1  0.50120003  0.28661553  0.07392371  1
  C  C1220  1  0.33052518  0.52853781  0.06694090  1
  C  C1221  1  0.41846344  0.44128625  0.10110607  1
  N  N1222  1  0.48892016  0.37386615  0.14347620  1
  H  H1223  1  0.35396552  0.56000259  0.04442977  1
  H  H1224  1  0.28778418  0.53405525  0.05262905  1
  H  H1225  1  0.31230889  0.54180486  0.10414881  1
  N  N1226  1  0.42427845  0.47350579  0.13404037  1
  C  C1227  1  0.46725098  0.43177827  0.15849252  1
  C  C1228  1  0.52853574  0.31595221  0.16819653  1
  H  H1229  1  0.48324728  0.44160487  0.18748466  1
  H  H1230  1  0.57080790  0.32155263  0.17574265  1
  H  H1231  1  0.49898205  0.30294877  0.20235433  1
  H  H1232  1  0.54637876  0.27818570  0.14590818  1
  H  H1233  1  0.59455996  0.05641995  -0.03121352  1
  C  C1234  1  0.57076352  0.10359828  -0.04664108  1
  C  C1235  1  0.57183689  0.15887012  -0.03363460  1
  C  C1236  1  0.52866915  0.12236097  -0.07780603  1
  C  C1237  1  0.60418951  0.15699179  0.00558156  1
  N  N1238  1  0.53793085  0.20803943  -0.05990264  1
  N  N1239  1  0.51233006  0.18595394  -0.08751487  1
  C  C1240  1  0.50524015  0.08138740  -0.09345476  1
  O  O1241  1  0.62626134  0.10215012  0.03446700  1
  O  O1242  1  0.60967669  0.20444308  0.01060350  1
  H  H1243  1  0.47817790  0.21399159  -0.10811415  1
  O  O1244  1  0.50260073  0.08606637  -0.14156306  1
  O  O1245  1  0.48875738  0.04444722  -0.06128454  1
  H  H1246  1  0.61012172  0.07258649  0.02822285  1
  H  H1247  1  0.48451332  0.05618359  -0.14493878  1
  H  H1248  1  0.73101602  -0.04688686  0.31664995  1
  C  C1249  1  0.73723348  -0.07476873  0.35207891  1
  H  H1250  1  0.69562763  -0.09037185  0.36496688  1
  N  N1251  1  0.73925294  -0.03899384  0.38765295  1
  H  H1252  1  0.78250900  -0.11512019  0.34657941  1
  C  C1253  1  0.75798819  0.01240925  0.37200071  1
  C  C1254  1  0.72131028  -0.05526232  0.43774271  1
  N  N1255  1  0.74827273  0.05410791  0.40385406  1
  O  O1256  1  0.78670899  0.01971918  0.32985400  1
  C  C1257  1  0.71384214  -0.01335174  0.47212030  1
  O  O1258  1  0.71119168  -0.10363320  0.45278647  1
  C  C1259  1  0.76252315  0.11081943  0.38550653  1
  C  C1260  1  0.72503851  0.04044944  0.45375871  1
  N  N1261  1  0.69509254  -0.01156914  0.52237949  1
  H  H1262  1  0.81021517  0.10113123  0.36048374  1
  H  H1263  1  0.76417611  0.13265356  0.41519362  1
  H  H1264  1  0.72435718  0.14369475  0.36603492  1
  N  N1265  1  0.71268319  0.07598370  0.49067684  1
  C  C1266  1  0.69587428  0.04343268  0.53098625  1
  C  C1267  1  0.67696716  -0.05730621  0.56035906  1
  H  H1268  1  0.68365382  0.05849238  0.56669988  1
  H  H1269  1  0.63085047  -0.03508558  0.58491820  1
  H  H1270  1  0.71557460  -0.08004429  0.58178395  1
  H  H1271  1  0.67081292  -0.09238928  0.54442774  1
  H  H1272  1  0.33692418  -0.04494189  0.23543976  1
  C  C1273  1  0.36914977  -0.09287873  0.23419089  1
  C  C1274  1  0.35808149  -0.14093693  0.21765646  1
  C  C1275  1  0.42964723  -0.11890018  0.24553041  1
  C  C1276  1  0.29999457  -0.13124592  0.19872857  1
  N  N1277  1  0.40880452  -0.19327255  0.21953952  1
  N  N1278  1  0.45197812  -0.18031524  0.23737365  1
  C  C1279  1  0.46224686  -0.08598425  0.26115426  1
  O  O1280  1  0.30327260  -0.17655596  0.17411579  1
  O  O1281  1  0.25245500  -0.08336075  0.20521027  1
  H  H1282  1  0.49471758  -0.21271888  0.24621021  1
  O  O1283  1  0.43554767  -0.02347335  0.25490874  1
  O  O1284  1  0.51203019  -0.11524363  0.27748957  1
  H  H1285  1  0.34578110  -0.20974719  0.17461002  1
  H  H1286  1  0.46311364  -0.00732341  0.26529459  1
  H  H1287  1  0.80368098  0.48189999  0.05891070  1
  C  C1288  1  0.79796042  0.44708065  0.04228615  1
  H  H1289  1  0.75314711  0.43986189  0.06334007  1
  N  N1290  1  0.79437971  0.46751873  -0.00969005  1
  H  H1291  1  0.83966861  0.40386249  0.04611855  1
  C  C1292  1  0.83372161  0.49963597  -0.03899202  1
  C  C1293  1  0.75382968  0.45310813  -0.03121117  1
  N  N1294  1  0.82747720  0.52385493  -0.08735572  1
  O  O1295  1  0.87632281  0.50470825  -0.02263625  1
  C  C1296  1  0.75102597  0.47416498  -0.08303730  1
  O  O1297  1  0.72345935  0.42012420  -0.00801452  1
  C  C1298  1  0.85092600  0.57377592  -0.11227010  1
  C  C1299  1  0.78878753  0.50730099  -0.10921737  1
  N  N1300  1  0.71870630  0.46901006  -0.11634933  1
  H  H1301  1  0.89784137  0.56652905  -0.10343530  1
  H  H1302  1  0.81490033  0.61795568  -0.10107171  1
  H  H1303  1  0.85834634  0.57665466  -0.15209921  1
  N  N1304  1  0.78405658  0.51959184  -0.15820070  1
  C  C1305  1  0.74185142  0.49614827  -0.16149273  1
  C  C1306  1  0.66668955  0.44356641  -0.10635665  1
  H  H1307  1  0.72701563  0.49815441  -0.19535812  1
  H  H1308  1  0.67102964  0.40918091  -0.07411806  1
  H  H1309  1  0.61841962  0.48029904  -0.10000625  1
  H  H1310  1  0.67046958  0.42117476  -0.13749580  1
  H  H1311  1  0.62766069  0.29344543  0.55632184  1
  C  C1312  1  0.66724844  0.27968612  0.52522077  1
  C  C1313  1  0.66994181  0.24509157  0.48764211  1
  C  C1314  1  0.72387803  0.29155227  0.51303426  1
  C  C1315  1  0.61923249  0.22210304  0.48597581  1
  N  N1316  1  0.72465934  0.23711091  0.45495443  1
  N  N1317  1  0.75654584  0.26638177  0.46961322  1
  C  C1318  1  0.74784158  0.32407418  0.53789073  1
  O  O1319  1  0.56840627  0.22700121  0.52533443  1
  O  O1320  1  0.62503604  0.19967394  0.44912615  1
  H  H1321  1  0.80191032  0.26684059  0.45211560  1
  O  O1322  1  0.79982387  0.34014086  0.51199259  1
  O  O1323  1  0.72222528  0.33336834  0.58042036  1
  H  H1324  1  0.53727781  0.21316688  0.51735375  1
  H  H1325  1  0.81427255  0.35802011  0.53286171  1
  H  H1326  1  0.78178095  0.25746528  0.32238511  1
  C  C1327  1  0.73240212  0.27842581  0.34334113  1
  H  H1328  1  0.71592304  0.24063290  0.36191947  1
  N  N1329  1  0.68944281  0.32223012  0.31106410  1
  H  H1330  1  0.73406756  0.30226185  0.37153804  1
  C  C1331  1  0.63238732  0.31476310  0.30815874  1
  C  C1332  1  0.70609398  0.37090796  0.28191637  1
  N  N1333  1  0.59319967  0.35361386  0.27514176  1
  O  O1334  1  0.61536917  0.27438019  0.33562957  1
  C  C1335  1  0.66972046  0.40654306  0.24321623  1
  O  O1336  1  0.75242408  0.38247840  0.28660674  1
  C  C1337  1  0.53501924  0.34285274  0.27264811  1
  C  C1338  1  0.61469296  0.39692445  0.24118187  1
  N  N1339  1  0.67899929  0.44837548  0.20269551  1
  H  H1340  1  0.55020097  0.29871488  0.25874539  1
  H  H1341  1  0.50394211  0.34126849  0.30887730  1
  H  H1342  1  0.50532381  0.37902194  0.24888057  1
  N  N1343  1  0.58843065  0.43282180  0.20116430  1
  C  C1344  1  0.62794475  0.46237965  0.17865109  1
  C  C1345  1  0.73671963  0.46649668  0.18404589  1
  H  H1346  1  0.62162955  0.49314306  0.14497949  1
  H  H1347  1  0.77759486  0.42965155  0.16566285  1
  H  H1348  1  0.72558941  0.50819505  0.15776433  1
  H  H1349  1  0.75220526  0.47569002  0.21412948  1
  H  H1350  1  0.76393467  0.87856586  0.22983076  1
  C  C1351  1  0.73427842  0.89167894  0.20201585  1
  C  C1352  1  0.66352424  0.92389390  0.20845496  1
  C  C1353  1  0.75628572  0.88472749  0.15354632  1
  C  C1354  1  0.62001667  0.94440947  0.25459109  1
  N  N1355  1  0.64422020  0.93467309  0.16654638  1
  N  N1356  1  0.70032678  0.91061977  0.13333443  1
  C  C1357  1  0.82439242  0.86033492  0.12726720  1
  O  O1358  1  0.56126229  0.99204384  0.25244764  1
  O  O1359  1  0.63906760  0.91810620  0.29264853  1
  H  H1360  1  0.70180537  0.91405327  0.09673425  1
  O  O1361  1  0.83937480  0.88586219  0.08044156  1
  O  O1362  1  0.86426472  0.81816461  0.14819876  1
  H  H1363  1  0.55820659  1.00869403  0.21838744  1
  H  H1364  1  0.88524477  0.86402345  0.06702572  1
  H  H1365  1  0.60512830  0.82907868  0.21700811  1
  C  C1366  1  0.64284843  0.78374813  0.21084549  1
  H  H1367  1  0.66743873  0.78796376  0.17261545  1
  N  N1368  1  0.68834985  0.76571197  0.24468774  1
  H  H1369  1  0.61880388  0.75027521  0.21623905  1
  C  C1370  1  0.75612719  0.74985234  0.22834196  1
  C  C1371  1  0.66264346  0.77035995  0.29441295  1
  N  N1372  1  0.79618380  0.74570941  0.26003660  1
  O  O1373  1  0.78045331  0.74081454  0.18549808  1
  C  C1374  1  0.70338148  0.77147171  0.32634945  1
  O  O1375  1  0.60684500  0.77180453  0.31183574  1
  C  C1376  1  0.86609879  0.73329645  0.24443665  1
  C  C1377  1  0.76842652  0.75930034  0.30806488  1
  N  N1378  1  0.69400450  0.78206293  0.37420862  1
  H  H1379  1  0.87546809  0.77644361  0.23804217  1
  H  H1380  1  0.89151550  0.70293463  0.27317005  1
  H  H1381  1  0.88673557  0.71043225  0.21113918  1
  N  N1382  1  0.80036767  0.76206029  0.34275414  1
  C  C1383  1  0.75443184  0.77608298  0.38181538  1
  C  C1384  1  0.63210385  0.79774142  0.40995937  1
  H  H1385  1  0.76308322  0.78301297  0.41546502  1
  H  H1386  1  0.63557839  0.81884950  0.43936175  1
  H  H1387  1  0.62073502  0.75633475  0.42579349  1
  H  H1388  1  0.59202118  0.83040089  0.39239389  1
  H  H1389  1  0.34303711  0.12341353  0.16682155  1
  C  C1390  1  0.37044324  0.15311987  0.14849645  1
  C  C1391  1  0.34589872  0.21271450  0.11938927  1
  C  C1392  1  0.43535044  0.14117491  0.14633901  1
  C  C1393  1  0.27997960  0.24467097  0.10748168  1
  N  N1394  1  0.39333961  0.23446847  0.10186723  1
  N  N1395  1  0.44687335  0.19228260  0.11876752  1
  C  C1396  1  0.48485813  0.08671892  0.16665166  1
  O  O1397  1  0.23077218  0.22416979  0.13233684  1
  O  O1398  1  0.27245498  0.28877992  0.07562317  1
  H  H1399  1  0.49198653  0.19628006  0.10914729  1
  O  O1400  1  0.53527608  0.09402202  0.17976588  1
  O  O1401  1  0.48049013  0.03669955  0.16804161  1
  H  H1402  1  0.19107491  0.24890672  0.11927242  1
  H  H1403  1  0.53049537  0.13735546  0.17438999  1
